<?xml version="1.0" encoding="UTF-8"?>

<!-- generated on 2024-12-09 20:12:45 by Eclipse SUMO netedit Version 1.20.0
<configuration xmlns:xsi="http://www.w3.org/2001/XMLSchema-instance" xsi:noNamespaceSchemaLocation="http://sumo.dlr.de/xsd/neteditConfiguration.xsd">

    <input>
        <sumo-net-file value="/mysim/fangzhenjisuanqi/shiyan3.net.xml"/>
    </input>

    <output>
        <output-file value="/mysim/fangzhenjisuanqi/shiyan3.net.xml"/>
    </output>

    <processing>
        <geometry.min-radius.fix.railways value="false"/>
        <geometry.max-grade.fix value="false"/>
        <offset.disable-normalization value="true"/>
        <lefthand value="0"/>
    </processing>

    <junctions>
        <no-turnarounds value="true"/>
        <junctions.corner-detail value="5"/>
        <junctions.limit-turn-speed value="5.50"/>
        <rectangular-lane-cut value="0"/>
    </junctions>

    <pedestrian>
        <walkingareas value="0"/>
    </pedestrian>

</configuration>
-->

<net version="1.20" junctionCornerDetail="5" limitTurnSpeed="5.50" xmlns:xsi="http://www.w3.org/2001/XMLSchema-instance" xsi:noNamespaceSchemaLocation="http://sumo.dlr.de/xsd/net_file.xsd">

    <location netOffset="0.00,0.00" convBoundary="-5.40,9.69,114.87,89.87" origBoundary="-10000000000.00,-10000000000.00,10000000000.00,10000000000.00" projParameter="!"/>

    <edge id=":J1_0" function="internal">
        <lane id=":J1_0_0" index="0" disallow="pedestrian" speed="6.51" length="9.03" shape="52.70,57.42 52.35,54.97 51.30,53.22 49.55,52.17 47.10,51.82"/>
    </edge>
    <edge id=":J1_1" function="internal">
        <lane id=":J1_1_0" index="0" disallow="pedestrian" speed="13.89" length="14.40" shape="52.70,57.42 52.70,43.02"/>
    </edge>
    <edge id=":J1_2" function="internal">
        <lane id=":J1_2_0" index="0" disallow="pedestrian" speed="8.00" length="4.07" shape="52.70,57.42 53.25,53.57 53.34,53.42"/>
    </edge>
    <edge id=":J1_12" function="internal">
        <lane id=":J1_12_0" index="0" disallow="pedestrian" speed="8.00" length="10.13" shape="53.34,53.42 54.90,50.82 57.65,49.17 61.50,48.62"/>
    </edge>
    <edge id=":J1_3" function="internal">
        <lane id=":J1_3_0" index="0" disallow="pedestrian" speed="6.51" length="9.03" shape="61.50,51.82 59.05,52.17 57.30,53.22 56.25,54.97 55.90,57.42"/>
    </edge>
    <edge id=":J1_4" function="internal">
        <lane id=":J1_4_0" index="0" disallow="pedestrian" speed="13.89" length="14.40" shape="61.50,51.82 47.10,51.82"/>
    </edge>
    <edge id=":J1_5" function="internal">
        <lane id=":J1_5_0" index="0" disallow="pedestrian" speed="8.00" length="14.19" shape="61.50,51.82 57.65,51.27 54.90,49.62 53.25,46.87 52.70,43.02"/>
    </edge>
    <edge id=":J1_6" function="internal">
        <lane id=":J1_6_0" index="0" disallow="pedestrian" speed="6.51" length="9.03" shape="55.90,43.02 56.25,45.47 57.30,47.22 59.05,48.27 61.50,48.62"/>
    </edge>
    <edge id=":J1_7" function="internal">
        <lane id=":J1_7_0" index="0" disallow="pedestrian" speed="13.89" length="14.40" shape="55.90,43.02 55.90,57.42"/>
    </edge>
    <edge id=":J1_8" function="internal">
        <lane id=":J1_8_0" index="0" disallow="pedestrian" speed="8.00" length="4.07" shape="55.90,43.02 55.35,46.87 55.26,47.02"/>
    </edge>
    <edge id=":J1_13" function="internal">
        <lane id=":J1_13_0" index="0" disallow="pedestrian" speed="8.00" length="10.13" shape="55.26,47.02 53.70,49.62 50.95,51.27 47.10,51.82"/>
    </edge>
    <edge id=":J1_9" function="internal">
        <lane id=":J1_9_0" index="0" disallow="pedestrian" speed="6.51" length="9.03" shape="47.10,48.62 49.55,48.27 51.30,47.22 52.35,45.47 52.70,43.02"/>
    </edge>
    <edge id=":J1_10" function="internal">
        <lane id=":J1_10_0" index="0" disallow="pedestrian" speed="13.89" length="14.40" shape="47.10,48.62 61.50,48.62"/>
    </edge>
    <edge id=":J1_11" function="internal">
        <lane id=":J1_11_0" index="0" disallow="pedestrian" speed="8.00" length="14.19" shape="47.10,48.62 50.95,49.17 53.70,50.82 55.35,53.57 55.90,57.42"/>
    </edge>

    <edge id="-E0" from="J1" to="J3" priority="-1" length="100.00">
        <lane id="-E0_0" index="0" allow="pedestrian" speed="13.89" length="100.00" width="2.00" shape="50.10,43.02 50.10,9.69"/>
        <lane id="-E0_1" index="1" disallow="pedestrian" speed="13.89" length="100.00" shape="52.70,43.02 52.70,9.69"/>
    </edge>
    <edge id="-E1" from="J4" to="J1" priority="-1">
        <lane id="-E1_0" index="0" allow="pedestrian" speed="13.89" length="32.45" width="2.00" shape="50.10,89.87 50.10,57.42"/>
        <lane id="-E1_1" index="1" disallow="pedestrian" speed="13.89" length="32.45" shape="52.70,89.87 52.70,57.42"/>
    </edge>
    <edge id="-E2" from="J1" to="J2" priority="-1" length="100.00">
        <lane id="-E2_0" index="0" allow="pedestrian" speed="13.89" length="100.00" width="2.00" shape="61.50,46.02 114.87,46.02"/>
        <lane id="-E2_1" index="1" disallow="pedestrian" speed="13.89" length="100.00" shape="61.50,48.62 114.87,48.62"/>
    </edge>
    <edge id="-E3" from="J0" to="J1" priority="-1" length="100.00">
        <lane id="-E3_0" index="0" allow="pedestrian" speed="13.89" length="100.00" width="2.00" shape="-5.40,46.02 47.10,46.02"/>
        <lane id="-E3_1" index="1" disallow="pedestrian" speed="13.89" length="100.00" shape="-5.40,48.62 47.10,48.62"/>
    </edge>
    <edge id="E0" from="J3" to="J1" priority="-1">
        <lane id="E0_0" index="0" allow="pedestrian" speed="13.89" length="33.33" width="2.00" shape="58.50,9.69 58.50,43.02"/>
        <lane id="E0_1" index="1" disallow="pedestrian" speed="13.89" length="33.33" shape="55.90,9.69 55.90,43.02"/>
    </edge>
    <edge id="E1" from="J1" to="J4" priority="-1" length="100.00">
        <lane id="E1_0" index="0" allow="pedestrian" speed="13.89" length="100.00" width="2.00" shape="58.50,57.42 58.50,89.87"/>
        <lane id="E1_1" index="1" disallow="pedestrian" speed="13.89" length="100.00" shape="55.90,57.42 55.90,89.87"/>
    </edge>
    <edge id="E2" from="J2" to="J1" priority="-1">
        <lane id="E2_0" index="0" allow="pedestrian" speed="13.89" length="53.37" width="2.00" shape="114.87,54.42 61.50,54.42"/>
        <lane id="E2_1" index="1" disallow="pedestrian" speed="13.89" length="53.37" shape="114.87,51.82 61.50,51.82"/>
    </edge>
    <edge id="E3" from="J1" to="J0" priority="-1">
        <lane id="E3_0" index="0" allow="pedestrian" speed="13.89" length="52.50" width="2.00" shape="47.10,54.42 -5.40,54.42"/>
        <lane id="E3_1" index="1" disallow="pedestrian" speed="13.89" length="52.50" shape="47.10,51.82 -5.40,51.82"/>
    </edge>

    <junction id="J0" type="dead_end" x="-5.40" y="50.22" incLanes="E3_0 E3_1" intLanes="" shape="-5.40,50.22 -5.40,55.42 -5.40,50.22"/>
    <junction id="J1" type="priority" x="54.30" y="50.22" incLanes="-E1_0 -E1_1 E2_0 E2_1 E0_0 E0_1 -E3_0 -E3_1" intLanes=":J1_0_0 :J1_1_0 :J1_12_0 :J1_3_0 :J1_4_0 :J1_5_0 :J1_6_0 :J1_7_0 :J1_13_0 :J1_9_0 :J1_10_0 :J1_11_0" shape="49.10,57.42 59.50,57.42 59.72,56.31 60.00,55.92 60.39,55.64 60.89,55.48 61.50,55.42 61.50,45.02 60.39,44.80 60.00,44.52 59.72,44.13 59.56,43.63 59.50,43.02 49.10,43.02 48.88,44.13 48.60,44.52 48.21,44.80 47.71,44.96 47.10,45.02 47.10,55.42 48.21,55.64 48.60,55.92 48.88,56.31 49.04,56.81">
        <request index="0"  response="000000000000" foes="000100010000" cont="0"/>
        <request index="1"  response="000000000000" foes="111100110000" cont="0"/>
        <request index="2"  response="000111000000" foes="110111110000" cont="1"/>
        <request index="3"  response="000010000000" foes="100010000000" cont="0"/>
        <request index="4"  response="000110000111" foes="100110000111" cont="0"/>
        <request index="5"  response="011110000110" foes="111110000110" cont="0"/>
        <request index="6"  response="000000000000" foes="010000000100" cont="0"/>
        <request index="7"  response="000000000000" foes="110000111100" cont="0"/>
        <request index="8"  response="000000000011" foes="110000110111" cont="1"/>
        <request index="9"  response="000000000010" foes="000000100010" cont="0"/>
        <request index="10" response="000111000110" foes="000111100110" cont="0"/>
        <request index="11" response="000110111110" foes="000110111110" cont="0"/>
    </junction>
    <junction id="J2" type="dead_end" x="114.87" y="50.22" incLanes="-E2_0 -E2_1" intLanes="" shape="114.87,50.22 114.87,45.02 114.87,50.22"/>
    <junction id="J3" type="dead_end" x="54.30" y="9.69" incLanes="-E0_0 -E0_1" intLanes="" shape="54.30,9.69 49.10,9.69 54.30,9.69"/>
    <junction id="J4" type="dead_end" x="54.30" y="89.87" incLanes="E1_0 E1_1" intLanes="" shape="54.30,89.87 59.50,89.87 54.30,89.87"/>

    <junction id=":J1_12_0" type="internal" x="53.34" y="53.42" incLanes=":J1_2_0 E0_1" intLanes=":J1_4_0 :J1_5_0 :J1_6_0 :J1_7_0 :J1_10_0 :J1_11_0"/>
    <junction id=":J1_13_0" type="internal" x="55.26" y="47.02" incLanes=":J1_8_0 -E1_1" intLanes=":J1_0_0 :J1_1_0 :J1_4_0 :J1_5_0 :J1_10_0 :J1_11_0"/>

    <connection from="-E1" to="E3" fromLane="1" toLane="1" via=":J1_0_0" dir="r" state="M"/>
    <connection from="-E1" to="-E0" fromLane="1" toLane="1" via=":J1_1_0" dir="s" state="M"/>
    <connection from="-E1" to="-E2" fromLane="1" toLane="1" via=":J1_2_0" dir="l" state="m"/>
    <connection from="-E3" to="-E0" fromLane="1" toLane="1" via=":J1_9_0" dir="r" state="m"/>
    <connection from="-E3" to="-E2" fromLane="1" toLane="1" via=":J1_10_0" dir="s" state="m"/>
    <connection from="-E3" to="E1" fromLane="1" toLane="1" via=":J1_11_0" dir="l" state="m"/>
    <connection from="E0" to="-E2" fromLane="1" toLane="1" via=":J1_6_0" dir="r" state="M"/>
    <connection from="E0" to="E1" fromLane="1" toLane="1" via=":J1_7_0" dir="s" state="M"/>
    <connection from="E0" to="E3" fromLane="1" toLane="1" via=":J1_8_0" dir="l" state="m"/>
    <connection from="E2" to="E1" fromLane="1" toLane="1" via=":J1_3_0" dir="r" state="m"/>
    <connection from="E2" to="E3" fromLane="1" toLane="1" via=":J1_4_0" dir="s" state="m"/>
    <connection from="E2" to="-E0" fromLane="1" toLane="1" via=":J1_5_0" dir="l" state="m"/>

    <connection from=":J1_0" to="E3" fromLane="0" toLane="1" dir="r" state="M"/>
    <connection from=":J1_1" to="-E0" fromLane="0" toLane="1" dir="s" state="M"/>
    <connection from=":J1_2" to="-E2" fromLane="0" toLane="1" via=":J1_12_0" dir="l" state="m"/>
    <connection from=":J1_12" to="-E2" fromLane="0" toLane="1" dir="l" state="M"/>
    <connection from=":J1_3" to="E1" fromLane="0" toLane="1" dir="r" state="M"/>
    <connection from=":J1_4" to="E3" fromLane="0" toLane="1" dir="s" state="M"/>
    <connection from=":J1_5" to="-E0" fromLane="0" toLane="1" dir="l" state="M"/>
    <connection from=":J1_6" to="-E2" fromLane="0" toLane="1" dir="r" state="M"/>
    <connection from=":J1_7" to="E1" fromLane="0" toLane="1" dir="s" state="M"/>
    <connection from=":J1_8" to="E3" fromLane="0" toLane="1" via=":J1_13_0" dir="l" state="m"/>
    <connection from=":J1_13" to="E3" fromLane="0" toLane="1" dir="l" state="M"/>
    <connection from=":J1_9" to="-E0" fromLane="0" toLane="1" dir="r" state="M"/>
    <connection from=":J1_10" to="-E2" fromLane="0" toLane="1" dir="s" state="M"/>
    <connection from=":J1_11" to="E1" fromLane="0" toLane="1" dir="l" state="M"/>

</net>
