<?xml version="1.0" encoding="UTF-8"?>

<!-- generated on 2025-03-24 17:48:31 by Eclipse SUMO netedit Version 1.19.0
<configuration xmlns:xsi="http://www.w3.org/2001/XMLSchema-instance" xsi:noNamespaceSchemaLocation="http://sumo.dlr.de/xsd/neteditConfiguration.xsd">

    <input>
        <sumo-net-file value="C:\Users\Administrator\Desktop\GC_GQ.net.xml"/>
    </input>

    <output>
        <output-file value="C:\Users\Administrator\Desktop\GC_GQ.net.xml"/>
        <output.street-names value="true"/>
    </output>

    <processing>
        <geometry.min-radius.fix.railways value="false"/>
        <geometry.max-grade.fix value="false"/>
        <offset.disable-normalization value="true"/>
        <lefthand value="0"/>
    </processing>

    <junctions>
        <no-internal-links value="false"/>
        <no-turnarounds value="true"/>
        <junctions.corner-detail value="5"/>
        <junctions.limit-turn-speed value="5.50"/>
        <rectangular-lane-cut value="0"/>
    </junctions>

    <pedestrian>
        <walkingareas value="0"/>
    </pedestrian>

</configuration>
-->

<net version="1.16" junctionCornerDetail="5" limitTurnSpeed="5.50" xmlns:xsi="http://www.w3.org/2001/XMLSchema-instance" xsi:noNamespaceSchemaLocation="http://sumo.dlr.de/xsd/net_file.xsd">

    <location netOffset="-801418.23,-2522095.32" convBoundary="454.91,0.00,3201.48,3978.00" origBoundary="113.935778,22.779356,113.967466,22.814748" projParameter="+proj=utm +zone=49 +ellps=WGS84 +datum=WGS84 +units=m +no_defs"/>

    <type id="highway.primary" priority="12" numLanes="2" speed="27.78" disallow="tram rail_urban rail rail_electric rail_fast ship" oneway="0"/>
    <type id="highway.tertiary" priority="10" numLanes="1" speed="22.22" disallow="tram rail_urban rail rail_electric rail_fast ship" oneway="0"/>
    <type id="highway.trunk" priority="13" numLanes="2" speed="27.78" disallow="pedestrian bicycle tram rail_urban rail rail_electric rail_fast ship" oneway="0"/>
    <type id="highway.trunk_link" priority="8" numLanes="1" speed="22.22" disallow="pedestrian bicycle tram rail_urban rail rail_electric rail_fast ship" oneway="0"/>

    <edge id=":3904444701_0" function="internal">
        <lane id=":3904444701_0_0" index="0" disallow="pedestrian bicycle tram rail_urban rail rail_electric rail_fast ship" speed="25.00" length="27.68" width="4.00" shape="677.67,1972.11 684.56,1977.53 689.56,1981.88 694.26,1985.23 700.29,1987.70"/>
    </edge>
    <edge id=":3904444701_1" function="internal">
        <lane id=":3904444701_1_0" index="0" disallow="pedestrian bicycle tram rail_urban rail rail_electric rail_fast ship" speed="27.78" length="27.15" width="3.50" shape="675.92,1974.55 681.76,1980.05 684.60,1985.03 687.39,1990.08 693.08,1995.77"/>
        <lane id=":3904444701_1_1" index="1" disallow="pedestrian bicycle tram rail_urban rail rail_electric rail_fast ship" speed="27.78" length="27.15" width="3.50" shape="674.17,1976.98 680.21,1982.06 683.72,1986.25 687.18,1990.51 693.08,1995.77"/>
        <lane id=":3904444701_1_2" index="2" disallow="pedestrian bicycle tram rail_urban rail rail_electric rail_fast ship" speed="27.78" length="27.15" width="3.50" shape="674.17,1976.98 679.95,1982.55 682.66,1987.64 685.32,1992.80 690.96,1998.55"/>
        <lane id=":3904444701_1_3" index="3" disallow="pedestrian bicycle tram rail_urban rail rail_electric rail_fast ship" speed="27.78" length="27.15" width="3.50" shape="672.42,1979.42 678.40,1984.55 681.78,1988.86 685.12,1993.24 690.96,1998.55"/>
        <lane id=":3904444701_1_4" index="4" disallow="pedestrian bicycle tram rail_urban rail rail_electric rail_fast ship" speed="27.78" length="27.15" width="3.50" shape="672.42,1979.42 678.15,1985.04 680.72,1990.25 683.24,1995.52 688.83,2001.33"/>
        <lane id=":3904444701_1_5" index="5" disallow="pedestrian bicycle tram rail_urban rail rail_electric rail_fast ship" speed="27.78" length="27.15" width="3.50" shape="670.68,1981.86 676.59,1987.04 679.84,1991.47 683.05,1995.97 688.83,2001.33"/>
        <lane id=":3904444701_1_6" index="6" disallow="pedestrian bicycle tram rail_urban rail rail_electric rail_fast ship" speed="27.78" length="27.15" width="3.50" shape="668.93,1984.30 674.78,1989.53 677.91,1994.08 680.99,1998.70 686.70,2004.11"/>
    </edge>
    <edge id=":3904444701_w1" function="walkingarea">
        <lane id=":3904444701_w1_0" index="0" allow="pedestrian" speed="2.78" length="26.47" width="2.00" shape="700.83,1985.78 701.38,1983.86 679.71,1969.26 678.54,1970.89 683.08,1974.45 686.30,1977.40 688.94,1979.88 691.75,1982.02 695.46,1983.94"/>
    </edge>
    <edge id=":3904444707_0" function="internal">
        <lane id=":3904444707_0_0" index="0" disallow="pedestrian bicycle tram rail_urban rail rail_electric rail_fast ship" speed="24.26" length="17.18" width="4.00" shape="766.50,1975.36 764.59,1979.96 764.14,1983.39 764.34,1987.00 764.36,1992.12"/>
    </edge>
    <edge id=":3904444707_1" function="internal">
        <lane id=":3904444707_1_0" index="0" disallow="pedestrian tram rail_urban rail rail_electric rail_fast ship" speed="27.78" length="20.49" width="3.50" shape="763.75,1974.15 755.78,1993.23"/>
        <lane id=":3904444707_1_1" index="1" disallow="pedestrian tram rail_urban rail rail_electric rail_fast ship" speed="27.78" length="20.49" width="3.50" shape="760.99,1972.95 752.65,1991.66"/>
        <lane id=":3904444707_1_2" index="2" disallow="pedestrian tram rail_urban rail rail_electric rail_fast ship" speed="27.78" length="20.49" width="3.50" shape="758.24,1971.75 749.52,1990.10"/>
    </edge>
    <edge id=":3904444707_4" function="internal">
        <lane id=":3904444707_4_0" index="0" disallow="pedestrian bicycle tram rail_urban rail rail_electric rail_fast ship" speed="25.00" length="21.15" width="3.00" shape="731.26,1980.96 735.26,1976.48 738.68,1973.84 741.76,1970.99 744.77,1965.86"/>
        <lane id=":3904444707_4_1" index="1" disallow="pedestrian bicycle tram rail_urban rail rail_electric rail_fast ship" speed="25.00" length="21.15" width="3.00" shape="731.26,1980.96 735.66,1976.74 739.97,1974.64 743.99,1972.22 747.52,1967.06"/>
    </edge>
    <edge id=":3904444707_6" function="internal">
        <lane id=":3904444707_6_0" index="0" disallow="pedestrian bicycle tram rail_urban rail rail_electric rail_fast ship" speed="7.80" length="27.41" width="3.50" shape="731.26,1980.96 755.78,1993.23"/>
        <lane id=":3904444707_6_1" index="1" disallow="pedestrian bicycle tram rail_urban rail rail_electric rail_fast ship" speed="7.33" length="23.91" width="3.50" shape="731.26,1980.96 752.65,1991.66"/>
        <lane id=":3904444707_6_2" index="2" disallow="pedestrian bicycle tram rail_urban rail rail_electric rail_fast ship" speed="6.84" length="20.41" width="3.50" shape="731.26,1980.96 749.52,1990.10"/>
    </edge>
    <edge id=":3904444707_9" function="internal">
        <lane id=":3904444707_9_0" index="0" disallow="pedestrian tram rail_urban rail rail_electric rail_fast ship" speed="27.78" length="19.83" width="3.00" shape="737.39,1984.03 744.77,1965.86"/>
        <lane id=":3904444707_9_1" index="1" disallow="pedestrian tram rail_urban rail rail_electric rail_fast ship" speed="27.78" length="19.83" width="3.00" shape="737.39,1984.03 747.52,1967.06"/>
        <lane id=":3904444707_9_2" index="2" disallow="pedestrian tram rail_urban rail rail_electric rail_fast ship" speed="27.78" length="19.83" width="3.00" shape="740.26,1985.46 750.27,1968.26"/>
        <lane id=":3904444707_9_3" index="3" disallow="pedestrian tram rail_urban rail rail_electric rail_fast ship" speed="27.78" length="19.83" width="3.00" shape="743.12,1986.89 753.01,1969.47"/>
    </edge>
    <edge id=":3904444707_w0" function="walkingarea">
        <lane id=":3904444707_w0_0" index="0" allow="pedestrian" speed="2.78" length="15.99" width="2.00" shape="766.35,1992.23 768.35,1992.34 769.68,1976.82 767.91,1975.90 766.46,1979.19 765.89,1981.65 765.86,1983.80 766.10,1986.03 766.36,1988.72"/>
    </edge>
    <edge id=":3904444707_w1" function="walkingarea">
        <lane id=":3904444707_w1_0" index="0" allow="pedestrian" speed="2.78" length="20.32" width="2.00" shape="743.39,1965.26 741.56,1964.46 727.77,1978.79 729.09,1980.29 732.40,1976.53 734.90,1974.45 737.20,1972.92 739.34,1971.30 741.39,1968.96"/>
    </edge>
    <edge id=":3904444714_0" function="internal">
        <lane id=":3904444714_0_0" index="0" disallow="pedestrian bicycle tram rail_urban rail rail_electric rail_fast ship" speed="25.00" length="30.09" width="3.50" shape="772.58,2033.21 776.53,2038.89 780.55,2043.97 785.95,2048.77 794.08,2053.62"/>
    </edge>
    <edge id=":3904444714_1" function="internal">
        <lane id=":3904444714_1_0" index="0" disallow="pedestrian bicycle tram rail_urban rail rail_electric rail_fast ship" speed="27.78" length="30.41" width="3.50" shape="768.06,2038.62 794.08,2053.62"/>
        <lane id=":3904444714_1_1" index="1" disallow="pedestrian bicycle tram rail_urban rail rail_electric rail_fast ship" speed="27.78" length="30.41" width="3.50" shape="766.55,2041.21 792.52,2056.75"/>
        <lane id=":3904444714_1_2" index="2" disallow="pedestrian bicycle tram rail_urban rail rail_electric rail_fast ship" speed="27.78" length="30.41" width="3.50" shape="765.03,2043.80 772.94,2048.11 778.59,2050.60 784.33,2052.94 792.52,2056.75"/>
        <lane id=":3904444714_1_3" index="3" disallow="pedestrian bicycle tram rail_urban rail rail_electric rail_fast ship" speed="27.78" length="30.41" width="3.50" shape="763.51,2046.39 790.95,2059.88"/>
        <lane id=":3904444714_1_4" index="4" disallow="pedestrian bicycle tram rail_urban rail rail_electric rail_fast ship" speed="27.78" length="30.41" width="3.50" shape="762.00,2048.98 789.38,2063.01"/>
    </edge>
    <edge id=":3904444714_w0" function="walkingarea">
        <lane id=":3904444714_w0_0" index="0" allow="pedestrian" speed="2.78" length="28.29" width="2.00" shape="794.87,2052.06 795.76,2050.27 775.83,2030.88 774.20,2032.05 777.75,2037.14 780.43,2040.99 782.86,2044.02 785.66,2046.60 789.45,2049.15"/>
    </edge>
    <edge id=":6444487665_0" function="internal">
        <lane id=":6444487665_0_0" index="0" allow="pedestrian" speed="9.74" length="21.15" width="2.00" shape="508.81,1872.00 513.81,1865.08 517.98,1860.57 521.32,1858.46 523.82,1858.75"/>
    </edge>
    <edge id=":6444487665_w0" function="walkingarea">
        <lane id=":6444487665_w0_0" index="0" allow="pedestrian" speed="2.78" length="20.02" width="6.00" shape="523.24,1859.57 524.41,1857.94 506.32,1870.34 511.31,1873.66"/>
    </edge>
    <edge id=":6444487667_0" function="internal">
        <lane id=":6444487667_0_0" index="0" allow="pedestrian" speed="8.91" length="17.62" width="6.00" shape="502.72,1887.96 501.95,1886.14 502.69,1882.89 504.94,1878.24 508.70,1872.17"/>
    </edge>
    <edge id=":6444487667_w0" function="walkingarea">
        <lane id=":6444487667_w0_0" index="0" allow="pedestrian" speed="2.78" length="16.89" width="6.00" shape="511.20,1873.83 506.20,1870.50 502.13,1888.77 503.31,1887.16"/>
    </edge>
    <edge id=":697508116#1-AddedOnRampNode_0" function="internal">
        <lane id=":697508116#1-AddedOnRampNode_0_0" index="0" allow="pedestrian" speed="8.16" length="16.27" width="6.00" shape="566.80,2232.29 564.45,2233.39 561.48,2232.62 557.90,2229.99 553.70,2225.48"/>
    </edge>
    <edge id=":697508116#1-AddedOnRampNode_w0" function="walkingarea">
        <lane id=":697508116#1-AddedOnRampNode_w0_0" index="0" allow="pedestrian" speed="2.78" length="14.76" width="6.00" shape="556.01,2223.57 551.39,2227.40 567.51,2232.99 566.10,2231.58"/>
    </edge>
    <edge id=":697508117#1-AddedOffRampNode_0" function="internal">
        <lane id=":697508117#1-AddedOffRampNode_0_0" index="0" allow="pedestrian" speed="9.41" length="17.81" width="2.00" shape="553.57,2225.33 549.02,2219.54 546.07,2215.10 544.74,2212.01 545.00,2210.28"/>
    </edge>
    <edge id=":697508117#1-AddedOffRampNode_w0" function="walkingarea">
        <lane id=":697508117#1-AddedOffRampNode_w0_0" index="0" allow="pedestrian" speed="2.78" length="17.32" width="6.00" shape="545.70,2210.99 544.30,2209.57 551.26,2227.24 555.88,2223.42"/>
    </edge>
    <edge id=":7125241853_0" function="internal">
        <lane id=":7125241853_0_0" index="0" allow="pedestrian" speed="20.84" length="27.53" width="2.00" shape="770.19,2083.31 762.31,2079.73 756.18,2077.71 750.54,2076.31 744.16,2074.59"/>
        <lane id=":7125241853_0_1" index="1" disallow="pedestrian bicycle tram rail_urban rail rail_electric rail_fast ship" speed="20.84" length="28.01" width="4.00" shape="771.44,2080.86 763.41,2077.17 757.16,2075.01 751.45,2073.49 745.05,2071.72"/>
    </edge>
    <edge id=":7125241853_2" function="internal">
        <lane id=":7125241853_2_0" index="0" disallow="pedestrian bicycle tram rail_urban rail rail_electric rail_fast ship" speed="27.78" length="27.33" width="3.50" shape="771.44,2080.86 764.20,2076.84 759.52,2073.62 754.93,2070.23 747.98,2065.70"/>
        <lane id=":7125241853_2_1" index="1" disallow="pedestrian bicycle tram rail_urban rail rail_electric rail_fast ship" speed="27.78" length="27.33" width="3.50" shape="773.03,2077.74 765.86,2073.75 761.22,2070.56 756.68,2067.20 749.79,2062.71"/>
        <lane id=":7125241853_2_2" index="2" disallow="pedestrian bicycle tram rail_urban rail rail_electric rail_fast ship" speed="27.78" length="27.33" width="3.50" shape="774.62,2074.63 767.52,2070.67 762.93,2067.50 758.43,2064.16 751.60,2059.71"/>
        <lane id=":7125241853_2_3" index="3" disallow="pedestrian bicycle tram rail_urban rail rail_electric rail_fast ship" speed="27.78" length="27.33" width="3.50" shape="776.21,2071.51 769.17,2067.58 764.63,2064.44 760.17,2061.13 753.41,2056.72"/>
        <lane id=":7125241853_2_4" index="4" disallow="pedestrian bicycle tram rail_urban rail rail_electric rail_fast ship" speed="27.78" length="27.33" width="3.50" shape="777.80,2068.39 770.83,2064.50 766.33,2061.38 761.92,2058.10 755.22,2053.72"/>
        <lane id=":7125241853_2_5" index="5" disallow="pedestrian bicycle tram rail_urban rail rail_electric rail_fast ship" speed="27.78" length="27.33" width="3.50" shape="779.39,2065.27 772.49,2061.42 768.03,2058.32 763.67,2055.06 757.04,2050.73"/>
    </edge>
    <edge id=":7125241853_w0" function="walkingarea">
        <lane id=":7125241853_w0_0" index="0" allow="pedestrian" speed="2.78" length="27.45" width="2.00" shape="744.46,2073.63 743.87,2075.54 769.74,2084.20 770.65,2082.42 765.35,2079.88 761.32,2078.26 757.89,2077.20 754.38,2076.32 750.13,2075.25"/>
    </edge>
    <edge id=":7125241853_w1" function="walkingarea">
        <lane id=":7125241853_w1_0" index="0" allow="pedestrian" speed="2.78" length="0.10" width="3.50" shape="748.88,2064.20 747.07,2067.20 746.03,2068.91 746.72,2069.69 747.80,2068.88 748.72,2067.66 749.32,2066.29 749.43,2065.05"/>
    </edge>
    <edge id=":7125241854_0" function="internal">
        <lane id=":7125241854_0_0" index="0" allow="pedestrian" speed="13.24" length="9.26" width="2.00" shape="717.84,2073.63 715.64,2074.37 714.06,2074.84 712.69,2075.61 711.13,2077.21"/>
        <lane id=":7125241854_0_1" index="1" disallow="pedestrian tram rail_urban rail rail_electric rail_fast ship" speed="14.44" length="9.26" shape="716.73,2070.84 714.18,2071.79 712.42,2072.52 710.91,2073.60 709.11,2075.57"/>
        <lane id=":7125241854_0_2" index="2" disallow="pedestrian tram rail_urban rail rail_electric rail_fast ship" speed="15.70" length="9.26" shape="716.73,2070.84 713.57,2071.51 711.10,2071.40 708.92,2071.69 706.63,2073.55"/>
    </edge>
    <edge id=":7125241854_3" function="internal">
        <lane id=":7125241854_3_0" index="0" disallow="pedestrian tram rail_urban rail rail_electric rail_fast ship" speed="22.22" length="11.19" shape="713.61,2064.90 711.94,2067.88 711.41,2070.28 710.86,2072.66 709.11,2075.57"/>
        <lane id=":7125241854_3_1" index="1" disallow="pedestrian tram rail_urban rail rail_electric rail_fast ship" speed="22.22" length="11.19" shape="713.61,2064.90 706.63,2073.55"/>
        <lane id=":7125241854_3_2" index="2" disallow="pedestrian tram rail_urban rail rail_electric rail_fast ship" speed="22.22" length="11.19" shape="711.07,2062.96 704.15,2071.53"/>
        <lane id=":7125241854_3_3" index="3" disallow="pedestrian tram rail_urban rail rail_electric rail_fast ship" speed="22.22" length="11.19" shape="708.53,2061.01 701.67,2069.51"/>
    </edge>
    <edge id=":7125241854_w0" function="walkingarea">
        <lane id=":7125241854_w0_0" index="0" allow="pedestrian" speed="2.78" length="7.61" width="2.00" shape="710.35,2076.58 711.90,2077.85 718.21,2074.56 717.47,2072.70 715.81,2073.29 714.52,2073.67 713.46,2074.02 712.50,2074.51 711.51,2075.31"/>
    </edge>
    <edge id=":7125241855_0" function="internal">
        <lane id=":7125241855_0_0" index="0" allow="pedestrian" speed="22.22" length="23.26" width="2.00" shape="677.21,2069.33 681.41,2063.62 683.96,2059.22 685.86,2054.78 688.12,2048.95"/>
        <lane id=":7125241855_0_1" index="1" disallow="pedestrian bicycle tram rail_urban rail rail_electric rail_fast ship" speed="22.22" length="23.69" width="4.00" shape="679.25,2070.94 683.60,2065.13 686.36,2060.68 688.44,2056.22 690.77,2050.39"/>
    </edge>
    <edge id=":7125241855_2" function="internal">
        <lane id=":7125241855_2_0" index="0" disallow="all" speed="22.22" length="23.96" width="2.00" shape="679.25,2070.94 693.68,2052.12"/>
        <lane id=":7125241855_2_1" index="1" disallow="pedestrian bicycle tram rail_urban rail rail_electric rail_fast ship" speed="22.22" length="23.96" shape="681.76,2072.92 695.78,2053.65"/>
        <lane id=":7125241855_2_2" index="2" disallow="pedestrian bicycle tram rail_urban rail rail_electric rail_fast ship" speed="22.22" length="23.96" shape="684.28,2074.90 698.37,2055.53"/>
        <lane id=":7125241855_2_3" index="3" disallow="pedestrian bicycle tram rail_urban rail rail_electric rail_fast ship" speed="22.22" length="23.96" shape="686.79,2076.88 700.96,2057.41"/>
        <lane id=":7125241855_2_4" index="4" disallow="pedestrian bicycle tram rail_urban rail rail_electric rail_fast ship" speed="22.22" length="23.96" shape="689.30,2078.86 703.55,2059.28"/>
    </edge>
    <edge id=":7125241855_w1" function="walkingarea">
        <lane id=":7125241855_w1_0" index="0" allow="pedestrian" speed="2.78" length="23.12" width="2.00" shape="689.04,2049.32 687.19,2048.58 676.42,2068.71 677.99,2069.95 680.98,2066.05 683.05,2063.04 684.53,2060.42 685.77,2057.66 687.12,2054.25"/>
    </edge>
    <edge id=":7125241856_0" function="internal">
        <lane id=":7125241856_0_0" index="0" disallow="pedestrian bicycle tram rail_urban rail rail_electric rail_fast ship" speed="21.08" length="11.56" width="3.00" shape="687.28,2027.82 685.79,2024.94 684.72,2022.96 683.34,2021.23 680.93,2019.13"/>
        <lane id=":7125241856_0_1" index="1" disallow="pedestrian bicycle tram rail_urban rail rail_electric rail_fast ship" speed="22.32" length="11.56" width="3.00" shape="687.28,2027.82 686.02,2024.41 685.71,2021.72 685.06,2019.33 682.79,2016.78"/>
    </edge>
    <edge id=":7125241856_2" function="internal">
        <lane id=":7125241856_2_0" index="0" disallow="pedestrian bicycle tram rail_urban rail rail_electric rail_fast ship" speed="27.78" length="11.40" width="3.00" shape="691.66,2023.74 688.71,2021.99 686.31,2021.42 683.90,2020.87 680.93,2019.13"/>
        <lane id=":7125241856_2_1" index="1" disallow="pedestrian bicycle tram rail_urban rail rail_electric rail_fast ship" speed="27.78" length="11.40" width="3.00" shape="691.66,2023.74 682.79,2016.78"/>
        <lane id=":7125241856_2_2" index="2" disallow="pedestrian bicycle tram rail_urban rail rail_electric rail_fast ship" speed="27.78" length="11.40" width="3.00" shape="693.53,2021.39 684.65,2014.42"/>
        <lane id=":7125241856_2_3" index="3" disallow="pedestrian bicycle tram rail_urban rail rail_electric rail_fast ship" speed="27.78" length="11.40" width="3.00" shape="695.40,2019.04 686.51,2012.07"/>
        <lane id=":7125241856_2_4" index="4" disallow="pedestrian bicycle tram rail_urban rail rail_electric rail_fast ship" speed="27.78" length="11.40" width="3.00" shape="697.27,2016.70 688.36,2009.71"/>
    </edge>
    <edge id=":7125241856_w0" function="walkingarea">
        <lane id=":7125241856_w0_0" index="0" allow="pedestrian" speed="2.78" length="9.72" width="2.00" shape="680.01,2020.31 678.77,2021.88 683.78,2029.75 685.53,2028.78 684.55,2026.84 683.90,2025.32 683.34,2024.06 682.66,2022.92 681.62,2021.72"/>
    </edge>
    <edge id=":7266421078_0" function="internal">
        <lane id=":7266421078_0_0" index="0" allow="pedestrian" speed="9.10" length="17.93" width="6.00" shape="957.32,2127.65 958.25,2129.24 958.07,2132.62 956.78,2137.79 954.39,2144.76"/>
    </edge>
    <edge id=":7266421078_w0" function="walkingarea">
        <lane id=":7266421078_w0_0" index="0" allow="pedestrian" speed="2.78" length="17.36" width="6.00" shape="951.58,2143.71 957.20,2145.81 957.74,2126.74 956.89,2128.56"/>
    </edge>
    <edge id=":7266423790_0" function="internal">
        <lane id=":7266423790_0_0" index="0" allow="pedestrian" speed="10.39" length="24.96" width="2.00" shape="954.32,2144.95 950.41,2154.31 946.83,2160.65 943.59,2163.95 940.69,2164.22"/>
    </edge>
    <edge id=":7266423790_w0" function="walkingarea">
        <lane id=":7266423790_w0_0" index="0" allow="pedestrian" speed="2.78" length="23.60" width="6.00" shape="941.10,2163.31 940.27,2165.13 957.13,2146.00 951.51,2143.90"/>
    </edge>
    <edge id=":762573176#1-AddedOnRampNode_0" function="internal">
        <lane id=":762573176#1-AddedOnRampNode_0_0" index="0" allow="pedestrian" speed="8.48" length="15.83" width="6.00" shape="835.53,1771.85 837.10,1770.70 840.11,1770.69 844.54,1771.83 850.42,1774.11"/>
    </edge>
    <edge id=":762573176#1-AddedOnRampNode_w0" function="walkingarea">
        <lane id=":762573176#1-AddedOnRampNode_w0_0" index="0" allow="pedestrian" speed="2.78" length="15.06" width="6.00" shape="849.23,1776.86 851.61,1771.35 834.64,1771.40 836.43,1772.29"/>
    </edge>
    <edge id=":762573194#0-AddedOffRampNode_0" function="internal">
        <lane id=":762573194#0-AddedOffRampNode_0_0" index="0" allow="pedestrian" speed="9.33" length="19.41" width="2.00" shape="852.84,1775.15 859.78,1778.51 864.42,1781.59 866.73,1784.38 866.74,1786.88"/>
    </edge>
    <edge id=":762573194#0-AddedOffRampNode_w0" function="walkingarea">
        <lane id=":762573194#0-AddedOffRampNode_w0_0" index="0" allow="pedestrian" speed="2.78" length="18.19" width="6.00" shape="865.84,1786.44 867.63,1787.32 854.03,1772.40 851.64,1777.91"/>
    </edge>
    <edge id=":896851875_0" function="internal">
        <lane id=":896851875_0_0" index="0" disallow="pedestrian bicycle tram rail_urban rail rail_electric rail_fast ship" speed="27.78" length="8.14" width="3.00" shape="828.24,2070.73 835.48,2073.71"/>
        <lane id=":896851875_0_1" index="1" disallow="pedestrian tram rail_urban rail rail_electric rail_fast ship" speed="27.78" length="8.14" width="3.00" shape="826.67,2073.86 828.84,2074.78 830.42,2075.19 832.01,2075.57 834.22,2076.43"/>
        <lane id=":896851875_0_2" index="2" disallow="pedestrian tram rail_urban rail rail_electric rail_fast ship" speed="27.78" length="8.14" width="3.00" shape="825.10,2076.99 827.34,2077.86 829.01,2078.11 830.68,2078.35 832.95,2079.15"/>
        <lane id=":896851875_0_3" index="3" disallow="pedestrian tram rail_urban rail rail_electric rail_fast ship" speed="27.78" length="8.14" width="3.00" shape="823.53,2080.12 825.85,2080.93 827.59,2081.04 829.34,2081.12 831.69,2081.87"/>
        <lane id=":896851875_0_4" index="4" disallow="pedestrian tram rail_urban rail rail_electric rail_fast ship" speed="27.78" length="8.14" width="3.00" shape="823.53,2080.12 825.63,2081.35 826.96,2082.40 828.29,2083.42 830.42,2084.59"/>
    </edge>
    <edge id=":896851875_w0" function="walkingarea">
        <lane id=":896851875_w0_0" index="0" allow="pedestrian" speed="2.78" length="7.75" width="2.00" shape="836.12,2072.35 836.96,2070.54 829.91,2067.38 829.02,2069.17"/>
    </edge>
    <edge id=":J0_0" function="internal">
        <lane id=":J0_0_0" index="0" disallow="pedestrian tram rail_urban rail rail_electric rail_fast ship" speed="27.78" length="27.46" width="3.00" shape="798.99,1919.69 794.89,1926.80 791.32,1931.22 787.70,1935.62 783.44,1942.65"/>
        <lane id=":J0_0_1" index="1" disallow="pedestrian tram rail_urban rail rail_electric rail_fast ship" speed="27.78" length="27.46" width="3.00" shape="796.30,1918.37 783.44,1942.65"/>
        <lane id=":J0_0_2" index="2" disallow="pedestrian tram rail_urban rail rail_electric rail_fast ship" speed="27.78" length="27.46" width="3.00" shape="793.60,1917.05 780.77,1941.27"/>
        <lane id=":J0_0_3" index="3" disallow="pedestrian tram rail_urban rail rail_electric rail_fast ship" speed="27.78" length="27.46" width="3.00" shape="790.91,1915.73 778.11,1939.89"/>
        <lane id=":J0_0_4" index="4" disallow="pedestrian tram rail_urban rail rail_electric rail_fast ship" speed="27.78" length="27.46" width="3.00" shape="788.21,1914.41 775.45,1938.51"/>
    </edge>
    <edge id=":J0_w0" function="walkingarea">
        <lane id=":J0_w0_0" index="0" allow="pedestrian" speed="2.78" length="27.79" width="2.00" shape="784.77,1943.34 786.55,1944.26 788.99,1940.09 791.66,1936.34 794.42,1932.78 797.16,1929.22 799.77,1925.43 802.14,1921.22 800.34,1920.35 797.51,1925.52 795.01,1929.11 792.66,1931.90 790.29,1934.67 787.72,1938.22"/>
    </edge>
    <edge id=":J1_0" function="internal">
        <lane id=":J1_0_0" index="0" disallow="pedestrian bicycle tram rail_urban rail rail_electric rail_fast ship" speed="22.22" length="9.10" width="4.00" shape="765.42,2012.82 765.97,2015.47 766.39,2017.27 766.89,2019.05 767.70,2021.62"/>
    </edge>
    <edge id=":J1_c0" function="crossing" crossingEdges="SE_out.28">
        <lane id=":J1_c0_0" index="0" allow="pedestrian" speed="2.78" length="4.00" width="4.00" shape="769.00,2019.11 765.19,2020.32"/>
    </edge>
    <edge id=":J1_c1" function="crossing" crossingEdges="SE_out">
        <lane id=":J1_c1_0" index="0" allow="pedestrian" speed="2.78" length="4.00" width="4.00" shape="763.87,2015.18 767.79,2014.38"/>
    </edge>
    <edge id=":J1_w0" function="walkingarea">
        <lane id=":J1_w0_0" index="0" allow="pedestrian" speed="2.78" length="5.33" width="4.00" shape="769.60,2021.02 771.51,2020.41 769.34,2012.01 767.38,2012.42 767.76,2014.27 768.06,2015.64 768.33,2016.76 768.63,2017.87 769.03,2019.21"/>
    </edge>
    <edge id=":J1_w1" function="walkingarea">
        <lane id=":J1_w1_0" index="0" allow="pedestrian" speed="2.78" length="4.12" width="6.00" shape="763.46,2013.23 761.75,2015.00 762.63,2020.93 765.79,2022.23 765.20,2020.34 764.77,2018.94 764.45,2017.77 764.17,2016.60 763.86,2015.17"/>
    </edge>
    <edge id=":J2_0" function="internal">
        <lane id=":J2_0_0" index="0" disallow="pedestrian" speed="13.89" length="8.80" width="4.00" shape="732.94,2069.43 730.34,2069.15 728.56,2069.02 726.77,2069.01 724.16,2069.12"/>
    </edge>
    <edge id=":J2_c0" function="crossing" crossingEdges="EN_out">
        <lane id=":J2_c0_0" index="0" allow="pedestrian" speed="2.78" length="4.00" width="4.00" shape="731.17,2067.23 730.73,2071.20"/>
    </edge>
    <edge id=":J2_c1" function="crossing" crossingEdges="EN_out.26">
        <lane id=":J2_c1_0" index="0" allow="pedestrian" speed="2.78" length="4.00" width="4.00" shape="726.26,2071.02 726.06,2067.03"/>
    </edge>
    <edge id=":J2_w0" function="walkingarea">
        <lane id=":J2_w0_0" index="0" allow="pedestrian" speed="2.78" length="5.11" width="4.00" shape="724.26,2071.12 724.36,2073.12 732.65,2073.43 732.87,2071.44 732.72,2071.42 730.93,2071.22 729.60,2071.09 728.50,2071.02 727.40,2071.00 726.06,2071.04"/>
    </edge>
    <edge id=":J2_w1" function="walkingarea">
        <lane id=":J2_w1_0" index="0" allow="pedestrian" speed="2.78" length="4.68" width="6.00" shape="733.16,2067.45 731.46,2063.38 725.46,2063.55 724.06,2067.13 726.00,2067.04 727.43,2067.00 728.62,2067.01 729.80,2067.09 731.23,2067.23"/>
    </edge>
    <edge id=":J3_0" function="internal">
        <lane id=":J3_0_0" index="0" disallow="pedestrian bicycle tram rail_urban rail rail_electric rail_fast ship" speed="11.67" length="9.31" width="4.00" shape="692.60,2043.26 692.83,2040.49 692.96,2038.51 692.57,2036.68 691.25,2034.36"/>
    </edge>
    <edge id=":J3_c0" function="crossing" crossingEdges="NW_out.31">
        <lane id=":J3_c0_0" index="0" allow="pedestrian" speed="2.78" length="4.00" width="4.00" shape="690.75,2037.15 694.03,2034.86"/>
    </edge>
    <edge id=":J3_c1" function="crossing" crossingEdges="NW_out">
        <lane id=":J3_c1_0" index="0" allow="pedestrian" speed="2.78" length="4.00" width="4.00" shape="694.68,2041.35 690.69,2041.18"/>
    </edge>
    <edge id=":J3_w0" function="walkingarea">
        <lane id=":J3_w0_0" index="0" allow="pedestrian" speed="2.78" length="4.72" width="6.00" shape="694.59,2043.35 696.48,2041.77 696.22,2035.78 692.89,2033.22 694.05,2035.07 694.69,2036.58 694.93,2037.94 694.91,2039.38 694.75,2041.11"/>
    </edge>
    <edge id=":J3_w1" function="walkingarea">
        <lane id=":J3_w1_0" index="0" allow="pedestrian" speed="2.78" length="4.52" width="4.00" shape="689.61,2035.51 687.97,2036.65 688.60,2043.09 690.60,2043.17 690.74,2041.49 690.91,2040.18 691.00,2039.08 690.89,2038.05 690.46,2036.91"/>
    </edge>
    <edge id=":J4_0" function="internal">
        <lane id=":J4_0_0" index="0" disallow="pedestrian bicycle tram rail_urban rail rail_electric rail_fast ship" speed="22.22" length="9.36" width="4.00" shape="713.69,1989.70 716.47,1989.58 718.41,1989.53 720.27,1989.19 722.83,1988.20"/>
    </edge>
    <edge id=":J4_c0" function="crossing" crossingEdges="WS_out.26">