<?xml version="1.0" encoding="UTF-8"?>
<!-- generated on 2025-01-19 11:51:17 by Eclipse SUMO sumo Version 1.21.0 -->
<sumoConfiguration xmlns:xsi="http://www.w3.org/2001/XMLSchema-instance" xsi:noNamespaceSchemaLocation="http://sumo.dlr.de/xsd/sumoConfiguration. xsd">
<input> 
<net-file value="GC_GQ.net.xml"/> 
<route-files value="GC_GQ.rou.xml"/> 
<additional-files value="inductionLoop.add.xml"/> 
</input>
</sumoConfiguration>