<?xml version="1.15.0" encoding="UTF-8"?>

<configuration xmlns:xsi="http://www.w3.org/2001/XMLSchema-instance" xsi:noNamespaceSchemaLocation="http://sumo.dlr.de/xsd/sumoConfiguration.xsd">

    <input>
        <net-file value="task3.net.xml"/>
        <route-files value="task3.rou.xml"/>
    </input>

    <time>
        <begin value="0"/>
        <end value="3600"/>
    </time>
	
	<gui_only>
        <gui-settings-file value="viewsettings.xml"/>
    </gui_only>

</configuration>
