<?xml version="1.0" encoding="UTF-8"?>

<!-- generated on 2024-12-09 20:39:30 by Eclipse SUMO netedit Version 1.19.0
<configuration xmlns:xsi="http://www.w3.org/2001/XMLSchema-instance" xsi:noNamespaceSchemaLocation="http://sumo.dlr.de/xsd/neteditConfiguration.xsd">

    <input>
        <sumo-net-file value="C:\Users\Administrator\Desktop\22354114\task3.net.xml"/>
    </input>

    <output>
        <output-file value="C:\Users\Administrator\Desktop\22354114\task3.net.xml"/>
    </output>

    <processing>
        <offset.disable-normalization value="true"/>
    </processing>

    <junctions>
        <no-internal-links value="false"/>
        <no-turnarounds value="true"/>
    </junctions>

    <netedit>
        <new-network value="false"/>
    </netedit>

</configuration>
-->

<net version="1.16" junctionCornerDetail="5" limitTurnSpeed="5.50" xmlns:xsi="http://www.w3.org/2001/XMLSchema-instance" xsi:noNamespaceSchemaLocation="http://sumo.dlr.de/xsd/net_file.xsd">

    <location netOffset="0.00,0.00" convBoundary="-50.69,-7.29,158.05,165.67" origBoundary="10000000000.00,10000000000.00,-10000000000.00,-10000000000.00" projParameter="!"/>

    <edge id=":J0_w0" function="walkingarea">
        <lane id=":J0_w0_0" index="0" allow="pedestrian" speed="2.78" length="27.60" width="2.00" shape="58.85,-7.06 60.85,-7.03 31.25,-7.55 33.25,-7.52"/>
    </edge>
    <edge id=":J1_0" function="internal">
        <lane id=":J1_0_0" index="0" allow="pedestrian" speed="4.80" length="4.84" width="2.00" shape="60.93,98.06 59.62,98.22 58.67,98.76 58.08,99.68 57.87,100.99"/>
    </edge>
    <edge id=":J1_1" function="internal">
        <lane id=":J1_1_0" index="0" allow="pedestrian" speed="13.89" length="33.78" width="2.00" shape="60.93,98.06 27.16,97.20"/>
    </edge>
    <edge id=":J1_2" function="internal">
        <lane id=":J1_2_0" index="0" allow="pedestrian" speed="13.20" length="27.01" width="2.00" shape="60.93,98.06 52.46,95.24 42.49,88.60 38.14,84.32"/>
    </edge>
    <edge id=":J1_3" function="internal">
        <lane id=":J1_3_0" index="0" disallow="pedestrian" speed="6.51" length="3.03" shape="60.99,95.46 58.54,95.76 58.06,96.03"/>
        <lane id=":J1_3_1" index="1" disallow="pedestrian" speed="7.33" length="4.73" shape="60.99,95.46 57.14,95.72 56.32,96.01"/>
        <lane id=":J1_3_2" index="2" disallow="pedestrian" speed="8.10" length="6.43" shape="60.99,95.46 55.74,95.69 54.60,95.98"/>
        <lane id=":J1_3_3" index="3" disallow="pedestrian" speed="8.83" length="8.13" shape="60.99,95.46 54.34,95.66 52.90,95.95"/>
    </edge>
    <edge id=":J1_7" function="internal">
        <lane id=":J1_7_0" index="0" disallow="pedestrian" speed="13.89" length="33.82" shape="60.99,95.46 27.24,94.60"/>
        <lane id=":J1_7_1" index="1" disallow="pedestrian" speed="13.89" length="33.82" shape="61.07,92.26 27.33,91.40"/>
        <lane id=":J1_7_2" index="2" disallow="pedestrian" speed="13.89" length="33.82" shape="61.07,92.26 51.04,91.53 44.24,90.27 37.44,88.99 27.42,88.20"/>
    </edge>
    <edge id=":J1_10" function="internal">
        <lane id=":J1_10_0" index="0" disallow="pedestrian" speed="12.03" length="9.81" shape="61.14,89.06 53.04,87.39 51.63,86.77"/>
        <lane id=":J1_10_1" index="1" disallow="pedestrian" speed="11.94" length="12.52" shape="61.14,89.06 50.31,87.86 48.80,87.26"/>
        <lane id=":J1_10_2" index="2" disallow="pedestrian" speed="11.44" length="10.00" shape="61.14,89.06 51.71,87.89 51.26,87.69"/>
        <lane id=":J1_10_3" index="3" disallow="pedestrian" speed="10.93" length="8.33" shape="61.14,89.06 53.11,87.92 52.91,87.82"/>
    </edge>
    <edge id=":J1_54" function="internal">
        <lane id=":J1_54_0" index="0" allow="pedestrian" speed="13.20" length="13.62" width="2.00" shape="38.14,84.32 34.22,80.45 30.82,73.08"/>
    </edge>
    <edge id=":J1_55" function="internal">
        <lane id=":J1_55_0" index="0" disallow="pedestrian" speed="6.51" length="6.01" shape="58.06,96.03 56.76,96.77 55.67,98.49 55.27,100.93"/>
    </edge>
    <edge id=":J1_56" function="internal">
        <lane id=":J1_56_0" index="0" disallow="pedestrian" speed="7.33" length="7.00" shape="56.32,96.01 54.36,96.71 52.67,98.42 52.07,100.86"/>
    </edge>
    <edge id=":J1_57" function="internal">
        <lane id=":J1_57_0" index="0" disallow="pedestrian" speed="8.10" length="8.14" shape="54.60,95.98 51.96,96.66 49.67,98.36 48.87,100.79"/>
    </edge>
    <edge id=":J1_58" function="internal">
        <lane id=":J1_58_0" index="0" disallow="pedestrian" speed="8.83" length="9.37" shape="52.90,95.95 49.56,96.60 46.68,98.29 45.67,100.72"/>
    </edge>
    <edge id=":J1_59" function="internal">
        <lane id=":J1_59_0" index="0" disallow="pedestrian" speed="12.03" length="23.45" shape="51.63,86.77 43.91,83.41 36.46,78.28 33.42,73.13"/>
    </edge>
    <edge id=":J1_60" function="internal">
        <lane id=":J1_60_0" index="0" disallow="pedestrian" speed="11.94" length="20.23" shape="48.80,87.26 42.62,84.81 38.05,79.92 36.62,73.19"/>
    </edge>
    <edge id=":J1_61" function="internal">
        <lane id=":J1_61_0" index="0" disallow="pedestrian" speed="11.44" length="19.99" shape="51.26,87.69 45.02,84.86 41.05,79.98 39.82,73.24"/>
    </edge>
    <edge id=":J1_62" function="internal">
        <lane id=":J1_62_0" index="0" disallow="pedestrian" speed="10.93" length="18.96" shape="52.91,87.82 47.41,84.91 44.05,80.04 43.02,73.30"/>
    </edge>
    <edge id=":J1_14" function="internal">
        <lane id=":J1_14_0" index="0" allow="pedestrian" speed="4.91" length="5.07" width="2.00" shape="58.42,73.57 58.58,74.99 59.14,76.01 60.08,76.64 61.42,76.87"/>
    </edge>
    <edge id=":J1_15" function="internal">
        <lane id=":J1_15_0" index="0" allow="pedestrian" speed="13.89" length="27.43" width="2.00" shape="58.42,73.57 57.87,100.99"/>
    </edge>
    <edge id=":J1_16" function="internal">
        <lane id=":J1_16_0" index="0" allow="pedestrian" speed="13.13" length="2.30" width="2.00" shape="58.42,73.57 57.37,75.62"/>
    </edge>
    <edge id=":J1_17" function="internal">
        <lane id=":J1_17_0" index="0" disallow="pedestrian" speed="6.59" length="3.13" shape="55.82,73.53 56.13,76.08 56.40,76.57"/>
        <lane id=":J1_17_1" index="1" disallow="pedestrian" speed="7.40" length="4.84" shape="55.82,73.53 56.10,77.48 56.39,78.31"/>
        <lane id=":J1_17_2" index="2" disallow="pedestrian" speed="8.17" length="6.55" shape="55.82,73.53 56.07,78.88 56.37,80.04"/>
    </edge>
    <edge id=":J1_20" function="internal">
        <lane id=":J1_20_0" index="0" disallow="pedestrian" speed="13.89" length="27.45" shape="55.82,73.53 55.27,100.93"/>
        <lane id=":J1_20_1" index="1" disallow="pedestrian" speed="13.89" length="27.45" shape="52.62,73.47 52.07,100.86"/>
        <lane id=":J1_20_2" index="2" disallow="pedestrian" speed="13.89" length="27.45" shape="49.42,73.41 48.87,100.79"/>
        <lane id=":J1_20_3" index="3" disallow="pedestrian" speed="13.89" length="27.45" shape="49.42,73.41 48.77,81.56 47.57,87.07 46.35,92.58 45.67,100.72"/>
    </edge>
    <edge id=":J1_24" function="internal">
        <lane id=":J1_24_0" index="0" disallow="pedestrian" speed="11.47" length="4.19" shape="46.22,73.36 45.19,77.42"/>
        <lane id=":J1_24_1" index="1" disallow="pedestrian" speed="11.35" length="4.23" shape="46.22,73.36 45.55,77.53"/>
        <lane id=":J1_24_2" index="2" disallow="pedestrian" speed="10.87" length="4.29" shape="46.22,73.36 45.42,77.57"/>
    </edge>
    <edge id=":J1_63" function="internal">
        <lane id=":J1_63_0" index="0" allow="pedestrian" speed="13.13" length="38.42" width="2.00" shape="57.37,75.62 54.72,80.82 46.07,88.61 35.77,94.79 27.16,97.20"/>
    </edge>
    <edge id=":J1_64" function="internal">
        <lane id=":J1_64_0" index="0" disallow="pedestrian" speed="6.59" length="6.12" shape="56.40,76.57 57.15,77.92 58.90,79.05 61.36,79.47"/>
    </edge>
    <edge id=":J1_65" function="internal">
        <lane id=":J1_65_0" index="0" disallow="pedestrian" speed="7.40" length="7.10" shape="56.39,78.31 57.11,80.32 58.83,82.05 61.29,82.67"/>
    </edge>
    <edge id=":J1_66" function="internal">
        <lane id=":J1_66_0" index="0" disallow="pedestrian" speed="8.17" length="8.23" shape="56.37,80.04 57.06,82.72 58.77,85.05 61.21,85.86"/>
    </edge>
    <edge id=":J1_67" function="internal">
        <lane id=":J1_67_0" index="0" disallow="pedestrian" speed="11.47" length="26.32" shape="45.19,77.42 44.41,80.46 39.93,87.40 33.85,92.64 27.24,94.60"/>
    </edge>
    <edge id=":J1_68" function="internal">
        <lane id=":J1_68_0" index="0" disallow="pedestrian" speed="11.35" length="25.64" shape="45.55,77.53 44.92,81.45 41.33,87.15 35.47,90.47 27.33,91.40"/>
    </edge>
    <edge id=":J1_69" function="internal">
        <lane id=":J1_69_0" index="0" disallow="pedestrian" speed="10.87" length="23.03" shape="45.42,77.57 44.94,80.05 41.38,84.75 35.54,87.47 27.42,88.20"/>
    </edge>
    <edge id=":J1_27" function="internal">
        <lane id=":J1_27_0" index="0" allow="pedestrian" speed="4.79" length="4.84" width="2.00" shape="27.76,76.01 29.08,75.86 30.03,75.32 30.61,74.40 30.82,73.08"/>
    </edge>
    <edge id=":J1_28" function="internal">
        <lane id=":J1_28_0" index="0" allow="pedestrian" speed="13.89" length="33.67" width="2.00" shape="27.76,76.01 61.42,76.87"/>
    </edge>
    <edge id=":J1_29" function="internal">
        <lane id=":J1_29_0" index="0" allow="pedestrian" speed="13.20" length="27.08" width="2.00" shape="27.76,76.01 36.24,78.86 46.22,85.51 50.59,89.82"/>
    </edge>
    <edge id=":J1_30" function="internal">
        <lane id=":J1_30_0" index="0" disallow="pedestrian" speed="6.50" length="3.06" shape="27.69,78.61 30.16,78.33 30.66,78.04"/>
        <lane id=":J1_30_1" index="1" disallow="pedestrian" speed="7.31" length="4.79" shape="27.69,78.61 31.56,78.36 32.42,78.06"/>
        <lane id=":J1_30_2" index="2" disallow="pedestrian" speed="8.09" length="6.53" shape="27.69,78.61 32.96,78.40 34.17,78.09"/>
        <lane id=":J1_30_3" index="3" disallow="pedestrian" speed="8.81" length="8.27" shape="27.69,78.61 34.36,78.44 35.92,78.13"/>
    </edge>
    <edge id=":J1_34" function="internal">
        <lane id=":J1_34_0" index="0" disallow="pedestrian" speed="13.89" length="33.76" shape="27.69,78.61 61.36,79.47"/>
        <lane id=":J1_34_1" index="1" disallow="pedestrian" speed="13.89" length="33.76" shape="27.60,81.81 61.29,82.67"/>
        <lane id=":J1_34_2" index="2" disallow="pedestrian" speed="13.89" length="33.76" shape="27.60,81.81 37.61,82.59 44.40,83.87 51.20,85.14 61.21,85.86"/>
    </edge>
    <edge id=":J1_37" function="internal">
        <lane id=":J1_37_0" index="0" disallow="pedestrian" speed="12.03" length="9.89" shape="27.51,85.01 35.61,86.71 37.08,87.35"/>
        <lane id=":J1_37_1" index="1" disallow="pedestrian" speed="11.94" length="12.65" shape="27.51,85.01 38.38,86.26 39.97,86.89"/>
        <lane id=":J1_37_2" index="2" disallow="pedestrian" speed="11.44" length="10.09" shape="27.51,85.01 36.98,86.22 37.47,86.44"/>
        <lane id=":J1_37_3" index="3" disallow="pedestrian" speed="10.93" length="8.42" shape="27.51,85.01 35.58,86.18 35.81,86.30"/>
    </edge>
    <edge id=":J1_70" function="internal">
        <lane id=":J1_70_0" index="0" allow="pedestrian" speed="13.20" length="13.54" width="2.00" shape="50.59,89.82 54.49,93.66 57.87,100.99"/>
    </edge>
    <edge id=":J1_71" function="internal">
        <lane id=":J1_71_0" index="0" disallow="pedestrian" speed="6.50" length="6.01" shape="30.66,78.04 31.94,77.32 33.03,75.59 33.42,73.13"/>
    </edge>
    <edge id=":J1_72" function="internal">
        <lane id=":J1_72_0" index="0" disallow="pedestrian" speed="7.31" length="6.99" shape="32.42,78.06 34.34,77.38 36.03,75.65 36.62,73.19"/>
    </edge>
    <edge id=":J1_73" function="internal">
        <lane id=":J1_73_0" index="0" disallow="pedestrian" speed="8.09" length="8.11" shape="34.17,78.09 36.74,77.44 39.03,75.72 39.82,73.24"/>
    </edge>
    <edge id=":J1_74" function="internal">
        <lane id=":J1_74_0" index="0" disallow="pedestrian" speed="8.81" length="9.31" shape="35.92,78.13 39.14,77.50 42.02,75.78 43.02,73.30"/>
    </edge>
    <edge id=":J1_75" function="internal">
        <lane id=":J1_75_0" index="0" disallow="pedestrian" speed="12.03" length="23.38" shape="37.08,87.35 44.77,90.70 52.24,95.82 55.27,100.93"/>
    </edge>
    <edge id=":J1_76" function="internal">
        <lane id=":J1_76_0" index="0" disallow="pedestrian" speed="11.94" length="20.09" shape="39.97,86.89 46.10,89.32 50.66,94.19 52.07,100.86"/>
    </edge>
    <edge id=":J1_77" function="internal">
        <lane id=":J1_77_0" index="0" disallow="pedestrian" speed="11.44" length="19.89" shape="37.47,86.44 43.70,89.26 47.66,94.11 48.87,100.79"/>
    </edge>
    <edge id=":J1_78" function="internal">
        <lane id=":J1_78_0" index="0" disallow="pedestrian" speed="10.93" length="18.86" shape="35.81,86.30 41.30,89.19 44.66,94.04 45.67,100.72"/>
    </edge>
    <edge id=":J1_41" function="internal">
        <lane id=":J1_41_0" index="0" allow="pedestrian" speed="4.91" length="5.06" width="2.00" shape="30.27,100.37 30.11,99.02 29.53,98.04 28.55,97.43 27.16,97.20"/>
    </edge>
    <edge id=":J1_42" function="internal">
        <lane id=":J1_42_0" index="0" allow="pedestrian" speed="13.89" length="27.29" width="2.00" shape="30.27,100.37 30.82,73.08"/>
    </edge>
    <edge id=":J1_43" function="internal">
        <lane id=":J1_43_0" index="0" allow="pedestrian" speed="13.15" length="2.15" width="2.00" shape="30.27,100.37 31.26,98.46"/>
    </edge>
    <edge id=":J1_44" function="internal">
        <lane id=":J1_44_0" index="0" disallow="pedestrian" speed="6.59" length="3.06" shape="32.87,100.43 32.57,97.94 32.29,97.46"/>
        <lane id=":J1_44_1" index="1" disallow="pedestrian" speed="7.39" length="4.79" shape="32.87,100.43 32.60,96.54 32.30,95.71"/>
        <lane id=":J1_44_2" index="2" disallow="pedestrian" speed="8.16" length="6.54" shape="32.87,100.43 32.63,95.14 32.32,93.94"/>
    </edge>
    <edge id=":J1_47" function="internal">
        <lane id=":J1_47_0" index="0" disallow="pedestrian" speed="13.89" length="27.39" shape="32.87,100.43 33.42,73.13"/>
        <lane id=":J1_47_1" index="1" disallow="pedestrian" speed="13.89" length="27.39" shape="36.07,100.50 36.62,73.19"/>
        <lane id=":J1_47_2" index="2" disallow="pedestrian" speed="13.89" length="27.39" shape="39.27,100.57 39.82,73.24"/>
        <lane id=":J1_47_3" index="3" disallow="pedestrian" speed="13.89" length="27.39" shape="39.27,100.57 39.95,92.44 41.17,86.94 42.38,81.43 43.02,73.30"/>
    </edge>
    <edge id=":J1_51" function="internal">
        <lane id=":J1_51_0" index="0" disallow="pedestrian" speed="11.49" length="4.08" shape="42.47,100.65 43.49,96.70"/>
        <lane id=":J1_51_1" index="1" disallow="pedestrian" speed="11.36" length="4.11" shape="42.47,100.65 43.14,96.59"/>
        <lane id=":J1_51_2" index="2" disallow="pedestrian" speed="10.88" length="4.17" shape="42.47,100.65 43.27,96.55"/>
    </edge>
    <edge id=":J1_79" function="internal">
        <lane id=":J1_79_0" index="0" allow="pedestrian" speed="13.15" length="38.39" width="2.00" shape="31.26,98.46 33.97,93.18 42.58,85.44 52.83,79.29 61.42,76.87"/>
    </edge>
    <edge id=":J1_80" function="internal">
        <lane id=":J1_80_0" index="0" disallow="pedestrian" speed="6.59" length="6.18" shape="32.29,97.46 31.53,96.14 29.75,95.03 27.24,94.60"/>
    </edge>
    <edge id=":J1_81" function="internal">
        <lane id=":J1_81_0" index="0" disallow="pedestrian" speed="7.39" length="7.12" shape="32.30,95.71 31.59,93.74 29.83,92.03 27.33,91.40"/>
    </edge>
    <edge id=":J1_82" function="internal">
        <lane id=":J1_82_0" index="0" disallow="pedestrian" speed="8.16" length="8.20" shape="32.32,93.94 31.65,91.34 29.91,89.03 27.42,88.20"/>
    </edge>
    <edge id=":J1_83" function="internal">
        <lane id=":J1_83_0" index="0" disallow="pedestrian" speed="11.49" length="26.30" shape="43.49,96.70 44.29,93.56 48.75,86.65 54.79,81.44 61.36,79.47"/>
    </edge>
    <edge id=":J1_84" function="internal">
        <lane id=":J1_84_0" index="0" disallow="pedestrian" speed="11.36" length="25.57" shape="43.14,96.59 43.80,92.62 47.38,86.95 53.21,83.63 61.29,82.67"/>
    </edge>
    <edge id=":J1_85" function="internal">
        <lane id=":J1_85_0" index="0" disallow="pedestrian" speed="10.88" length="22.98" shape="43.27,96.55 43.77,94.02 47.33,89.35 53.14,86.63 61.21,85.86"/>
    </edge>
    <edge id=":J1_c0" function="crossing" crossingEdges="-E2 E2">
        <lane id=":J1_c0_0" index="0" allow="pedestrian" speed="2.78" length="19.20" width="4.00" shape="59.39,77.82 58.96,97.02"/>
    </edge>
    <edge id=":J1_c1" function="crossing" crossingEdges="-E0 E0">
        <lane id=":J1_c1_0" index="0" allow="pedestrian" speed="2.78" length="25.60" width="4.00" shape="31.79,75.10 57.38,75.56"/>
    </edge>
    <edge id=":J1_c2" function="crossing" crossingEdges="E3 -E3">
        <lane id=":J1_c2_0" index="0" allow="pedestrian" speed="2.78" length="19.20" width="4.00" shape="29.19,96.26 29.73,77.07"/>
    </edge>
    <edge id=":J1_c3" function="crossing" crossingEdges="E1 -E1">
        <lane id=":J1_c3_0" index="0" allow="pedestrian" speed="2.78" length="25.60" width="4.00" shape="56.91,98.97 31.32,98.40"/>
    </edge>
    <edge id=":J1_w0" function="walkingarea">
        <lane id=":J1_w0_0" index="0" allow="pedestrian" speed="2.78" length="3.30" width="4.00" shape="56.87,100.97 58.87,101.02 60.91,99.06 60.96,97.06 59.73,97.15 58.73,97.46 57.94,97.99 57.36,98.76 57.01,99.75"/>
    </edge>
    <edge id=":J1_w1" function="walkingarea">
        <lane id=":J1_w1_0" index="0" allow="pedestrian" speed="2.78" length="3.43" width="4.00" shape="61.39,77.87 61.44,75.87 59.42,73.59 57.42,73.56 57.51,74.85 57.83,75.91 58.38,76.74 59.15,77.35 60.16,77.72"/>
    </edge>
    <edge id=":J1_w2" function="walkingarea">
        <lane id=":J1_w2_0" index="0" allow="pedestrian" speed="2.78" length="3.30" width="4.00" shape="31.82,73.10 29.82,73.07 27.79,75.01 27.73,77.01 28.96,76.93 29.97,76.62 30.76,76.09 31.34,75.32 31.69,74.33"/>
    </edge>
    <edge id=":J1_w3" function="walkingarea">
        <lane id=":J1_w3_0" index="0" allow="pedestrian" speed="2.78" length="3.42" width="4.00" shape="27.19,96.20 27.13,98.20 29.27,100.35 31.27,100.40 31.19,99.15 30.86,98.12 30.30,97.31 29.50,96.72 28.46,96.35"/>
    </edge>
    <edge id=":J2_w0" function="walkingarea">
        <lane id=":J2_w0_0" index="0" allow="pedestrian" speed="2.78" length="27.60" width="2.00" shape="29.81,165.38 27.81,165.34 57.41,166.00 55.41,165.96"/>
    </edge>
    <edge id=":J3_w0" function="walkingarea">
        <lane id=":J3_w0_0" index="0" allow="pedestrian" speed="2.78" length="21.20" width="2.00" shape="157.83,99.27 157.79,101.27 158.31,78.07 158.27,80.07"/>
    </edge>
    <edge id=":J4_w0" function="walkingarea">
        <lane id=":J4_w0_0" index="0" allow="pedestrian" speed="2.78" length="21.20" width="2.00" shape="-50.42,74.80 -50.36,72.80 -51.02,96.00 -50.96,94.00"/>
    </edge>

    <edge id="-E0" from="J1" to="J0" priority="-1">
        <lane id="-E0_0" index="0" allow="pedestrian" speed="13.89" length="80.63" width="2.00" shape="30.82,73.08 32.25,-7.53"/>
        <lane id="-E0_1" index="1" disallow="pedestrian" speed="13.89" length="80.63" shape="33.42,73.13 34.85,-7.49"/>
        <lane id="-E0_2" index="2" disallow="pedestrian" speed="13.89" length="80.63" shape="36.62,73.19 38.05,-7.43"/>
        <lane id="-E0_3" index="3" disallow="pedestrian" speed="13.89" length="80.63" shape="39.82,73.24 41.25,-7.38"/>
        <lane id="-E0_4" index="4" disallow="pedestrian" speed="13.89" length="80.63" shape="43.02,73.30 44.45,-7.32"/>
    </edge>
    <edge id="-E1" from="J2" to="J1" priority="-1">
        <lane id="-E1_0" index="0" allow="pedestrian" speed="13.89" length="65.00" width="2.00" shape="28.81,165.36 30.27,100.37"/>
        <lane id="-E1_1" index="1" disallow="pedestrian" speed="13.89" length="65.00" shape="31.41,165.42 32.87,100.43"/>
        <lane id="-E1_2" index="2" disallow="pedestrian" speed="13.89" length="65.00" shape="34.61,165.49 36.07,100.50"/>
        <lane id="-E1_3" index="3" disallow="pedestrian" speed="13.89" length="65.00" shape="37.81,165.56 39.27,100.57"/>
        <lane id="-E1_4" index="4" disallow="pedestrian" speed="13.89" length="65.00" shape="41.01,165.63 42.47,100.65"/>
    </edge>
    <edge id="-E2" from="J1" to="J3" priority="-1">
        <lane id="-E2_0" index="0" allow="pedestrian" speed="13.89" length="96.90" width="2.00" shape="61.42,76.87 158.29,79.07"/>
        <lane id="-E2_1" index="1" disallow="pedestrian" speed="13.89" length="96.90" shape="61.36,79.47 158.23,81.67"/>
        <lane id="-E2_2" index="2" disallow="pedestrian" speed="13.89" length="96.90" shape="61.29,82.67 158.16,84.87"/>
        <lane id="-E2_3" index="3" disallow="pedestrian" speed="13.89" length="96.90" shape="61.21,85.86 158.09,88.07"/>
    </edge>
    <edge id="-E3" from="J4" to="J1" priority="-1">
        <lane id="-E3_0" index="0" allow="pedestrian" speed="13.89" length="78.18" width="2.00" shape="-50.39,73.80 27.76,76.01"/>
        <lane id="-E3_1" index="1" disallow="pedestrian" speed="13.89" length="78.18" shape="-50.46,76.40 27.69,78.61"/>
        <lane id="-E3_2" index="2" disallow="pedestrian" speed="13.89" length="78.18" shape="-50.55,79.60 27.60,81.81"/>
        <lane id="-E3_3" index="3" disallow="pedestrian" speed="13.89" length="78.18" shape="-50.64,82.80 27.51,85.01"/>
    </edge>
    <edge id="E0" from="J0" to="J1" priority="-1">
        <lane id="E0_0" index="0" allow="pedestrian" speed="13.89" length="80.63" width="2.00" shape="59.85,-7.05 58.42,73.57"/>
        <lane id="E0_1" index="1" disallow="pedestrian" speed="13.89" length="80.63" shape="57.25,-7.09 55.82,73.53"/>
        <lane id="E0_2" index="2" disallow="pedestrian" speed="13.89" length="80.63" shape="54.05,-7.15 52.62,73.47"/>
        <lane id="E0_3" index="3" disallow="pedestrian" speed="13.89" length="80.63" shape="50.85,-7.20 49.42,73.41"/>
        <lane id="E0_4" index="4" disallow="pedestrian" speed="13.89" length="80.63" shape="47.65,-7.26 46.22,73.36"/>
    </edge>
    <edge id="E1" from="J1" to="J2" priority="-1">
        <lane id="E1_0" index="0" allow="pedestrian" speed="13.89" length="65.00" width="2.00" shape="57.87,100.99 56.41,165.98"/>
        <lane id="E1_1" index="1" disallow="pedestrian" speed="13.89" length="65.00" shape="55.27,100.93 53.81,165.92"/>
        <lane id="E1_2" index="2" disallow="pedestrian" speed="13.89" length="65.00" shape="52.07,100.86 50.61,165.85"/>
        <lane id="E1_3" index="3" disallow="pedestrian" speed="13.89" length="65.00" shape="48.87,100.79 47.41,165.78"/>
        <lane id="E1_4" index="4" disallow="pedestrian" speed="13.89" length="65.00" shape="45.67,100.72 44.21,165.71"/>
    </edge>
    <edge id="E2" from="J3" to="J1" priority="-1">
        <lane id="E2_0" index="0" allow="pedestrian" speed="13.89" length="96.90" width="2.00" shape="157.81,100.27 60.93,98.06"/>
        <lane id="E2_1" index="1" disallow="pedestrian" speed="13.89" length="96.90" shape="157.87,97.67 60.99,95.46"/>
        <lane id="E2_2" index="2" disallow="pedestrian" speed="13.89" length="96.90" shape="157.94,94.47 61.07,92.26"/>
        <lane id="E2_3" index="3" disallow="pedestrian" speed="13.89" length="96.90" shape="158.01,91.27 61.14,89.06"/>
    </edge>
    <edge id="E3" from="J1" to="J4" priority="-1">
        <lane id="E3_0" index="0" allow="pedestrian" speed="13.89" length="78.18" width="2.00" shape="27.16,97.20 -50.99,95.00"/>
        <lane id="E3_1" index="1" disallow="pedestrian" speed="13.89" length="78.18" shape="27.24,94.60 -50.92,92.40"/>
        <lane id="E3_2" index="2" disallow="pedestrian" speed="13.89" length="78.18" shape="27.33,91.40 -50.83,89.20"/>
        <lane id="E3_3" index="3" disallow="pedestrian" speed="13.89" length="78.18" shape="27.42,88.20 -50.74,86.00"/>
    </edge>

    <tlLogic id="J1" type="static" programID="0" offset="0">
        <phase duration="7.10"  state="rrrrrrrrrrGGGGrrrrrrrrrrrrrrrrrrrrrrrGGGGrrrrrrrrrrrrrrGrG"/>
        <phase duration="3"  state="rrrrrrrrrryyyyrrrrrrrrrrrrrrrrrrrrrrryyyyrrrrrrrrrrrrrryry"/>
        <phase duration="21.70" state="gGgggggGGGrrrrrrrrrrrrrrrrrgGgggggGGGrrrrrrrrrrrrrrrrrrrrr"/>
        <phase duration="3"  state="yyyyyyyyyyrrrrrrrrrrrrrrrrryyyyyyyyyyrrrrrrrrrrrrrrrrrrrrr"/>
        <phase duration="22.20" state="rrrrrrrrrrrrrrgggggggggggggrrrrrrrrrrrrrrggggggggggggggrgr"/>
        <phase duration="3"  state="rrrrrrrrrrrrrryyyyyyyyyyyyyrrrrrrrrrrrrrryyyyyyyyyyyyyyryr"/>
    </tlLogic>

    <junction id="J0" type="dead_end" x="46.05" y="-7.29" incLanes="-E0_0 -E0_1 -E0_2 -E0_3 -E0_4" intLanes="" shape="46.05,-7.29 31.25,-7.55 46.05,-7.29"/>
    <junction id="J1" type="traffic_light" x="44.38" y="87.08" incLanes="E2_0 E2_1 E2_2 E2_3 E0_0 E0_1 E0_2 E0_3 E0_4 -E3_0 -E3_1 -E3_2 -E3_3 -E1_0 -E1_1 -E1_2 -E1_3 -E1_4 :J1_w1_0 :J1_w2_0 :J1_w3_0 :J1_w0_0" intLanes=":J1_0_0 :J1_1_0 :J1_54_0 :J1_55_0 :J1_56_0 :J1_57_0 :J1_58_0 :J1_7_0 :J1_7_1 :J1_7_2 :J1_59_0 :J1_60_0 :J1_61_0 :J1_62_0 :J1_14_0 :J1_15_0 :J1_63_0 :J1_64_0 :J1_65_0 :J1_66_0 :J1_20_0 :J1_20_1 :J1_20_2 :J1_20_3 :J1_67_0 :J1_68_0 :J1_69_0 :J1_27_0 :J1_28_0 :J1_70_0 :J1_71_0 :J1_72_0 :J1_73_0 :J1_74_0 :J1_34_0 :J1_34_1 :J1_34_2 :J1_75_0 :J1_76_0 :J1_77_0 :J1_78_0 :J1_41_0 :J1_42_0 :J1_79_0 :J1_80_0 :J1_81_0 :J1_82_0 :J1_47_0 :J1_47_1 :J1_47_2 :J1_47_3 :J1_83_0 :J1_84_0 :J1_85_0 :J1_c0_0 :J1_c1_0 :J1_c2_0 :J1_c3_0" shape="60.91,99.06 61.44,75.87 60.30,75.59 59.90,75.27 59.63,74.83 59.46,74.27 59.42,73.59 29.82,73.07 29.58,74.17 29.30,74.55 28.90,74.82 28.40,74.97 27.79,75.01 27.13,98.20 28.34,98.47 28.76,98.77 29.06,99.18 29.23,99.71 29.27,100.35 58.87,101.02 59.11,99.91 59.40,99.53 59.80,99.26 60.30,99.10">
        <request index="0"  response="1000000000000000000000000000000000000000001000000000000000" foes="1001000000000000000000000000100000000000001000000000000000" cont="0"/>
        <request index="1"  response="0000111111111111100000000000000000111100011000000000000000" foes="0101111111111111111110000000100000111100011000000001111000" cont="0"/>
        <request index="2"  response="0010111111100011000001111111011111111100011000001110000000" foes="0011111111100011011111111111111111111100011000001111111000" cont="1"/>
        <request index="3"  response="1000000000000000000000000000000000111100001000000000000110" foes="1001000000000000011110000000100000111100001000000000000110" cont="1"/>
        <request index="4"  response="1000000000000000000000000000000000111100001000000000000110" foes="1001000000000000011110000000100000111100001000000000000110" cont="1"/>
        <request index="5"  response="1000000000000000000000000000000000111100001000000000000110" foes="1001000000000000011110000000100000111100001000000000000110" cont="1"/>
        <request index="6"  response="1000000000000000000000000000000000111100001000000000000110" foes="1001000000000000011110000000100000111100001000000000000110" cont="1"/>
        <request index="7"  response="0000111111111111000000000000000111111100011000000000000000" foes="0101111111111111011110000000100111111100011000000000000100" cont="0"/>
        <request index="8"  response="0000111111111111000000000000000111111100011000000000000000" foes="0101111111111111011110000000100111111100011000000000000100" cont="0"/>
        <request index="9"  response="0000111111111111000000000000000111111100011000000000000000" foes="0101111111111111011110000000100111111100011000000000000100" cont="0"/>
        <request index="10" response="0010111111100010000001111111010111111100011000000000000000" foes="0011111111100010000001111111110111111100011000000000000000" cont="1"/>
        <request index="11" response="0010111111100010000001111111010111111100011000000000000000" foes="0011111111100010000001111111110111111100011000000000000000" cont="1"/>
        <request index="12" response="0010111111100010000001111111010111111100011000000000000000" foes="0011111111100010000001111111110111111100011000000000000000" cont="1"/>
        <request index="13" response="0010111111100010000001111111010111111100011000000000000000" foes="0011111111100010000001111111110111111100011000000000000000" cont="1"/>
        <request index="14" response="0001000000000000000000000000000000000000000000000000000000" foes="0011000000000010000000000000010000000000000000000000000000" cont="0"/>
        <request index="15" response="0000000000000000000000000000100000000000000011110001111100" foes="1010111000000010000001110000110000000011100011111111111111" cont="0"/>
        <request index="16" response="0100000111111101111110000000100000111100000011110000000100" foes="0110111111111111111111110000110000111111100011111110000110" cont="1"/>
        <request index="17" response="0001000000000000000000000000000000000000011000000000000000" foes="0011111000000010000001110000010000000000011000000000000000" cont="1"/>
        <request index="18" response="0001000000000000000000000000000000000000011000000000000000" foes="0011111000000010000001110000010000000000011000000000000000" cont="1"/>
        <request index="19" response="0001000000000000000000000000000000000000011000000000000000" foes="0011111000000010000001110000010000000000011000000000000000" cont="1"/>
        <request index="20" response="0000000000000000011110000000100000000000000011110001111100" foes="1010111000000010011111110000110000000000010011111111111110" cont="0"/>
        <request index="21" response="0000000000000000011110000000100000000000000011110001111100" foes="1010111000000010011111110000110000000000010011111111111110" cont="0"/>
        <request index="22" response="0000000000000000011110000000100000000000000011110001111100" foes="1010111000000010011111110000110000000000010011111111111110" cont="0"/>