<?xml version="1.15.0" encoding="UTF-8"?>
<routes>
<vType id ="Car" length = "5" maxSpeed="17"/>
<flow id="1" color="1,1,0" begin="0" end="3600" vehsPerHour="300" type="Car" departLane="random" departSpeed="random">
    <route edges= "687491596#0 687491596#1 762573175 762573171#0 762573171#1 762573171#2 762573171#3 762573171#4 762573171#5 762573171#6 762573171#7 762573171#8 762573171#9"/>
</flow>
<flow id="2" color="1,1,0" begin="0" end="3600" vehsPerHour="300" type="Car" departLane="random" departSpeed="random">
    <route edges= "-771580519#2 -771580519#1 268424992 -268424996#2 -268424996#1 -268424996#0 585564519#1 585564519#2 585564519#3 585564519#4 585564519#5 585564519#6 585564519#7 762573173 762573174#0 762573174#1 762573174#2"/>
</flow>
<flow id="3" color="1,1,0" begin="0" end="3600" vehsPerHour="300" type="Car" departLane="random" departSpeed="random">
    <route edges= "762573194#0 762573194#1 762573194#2 762573172 697508116#0 697508116#1 697508116#2 697508116#3 697508116#4 -E1 -E0 -595555015#4 306974430#0 306974430#1 -595555015#0"/>
</flow>

<flow id="4" color="1,1,0" begin="0" end="3600" vehsPerHour="300" type="Car" departLane="random" departSpeed="random">
    <route edges= "306974457#0 306974457#1 595555015#2 595555015#3 595555015#4 E0 E1 778557937#0 778557937#1 778557937#2 778557937#3 778557937#4 762573174#2"/>
</flow>
<flow id="5" color="1,1,0" begin="0" end="3600" vehsPerHour="150" type="Car" departLane="random" departSpeed="random">
    <route edges= "306974457#0 -306974430#2 -306974430#1 -306974430#0 595555015#4 E0 E1 778557937#0 697508117#0 697508117#1 697508117#2 697508117#3 697508117#4 239609601 762573175 762573171#0 762573171#1 762573171#2 762573171#3 762573171#4 762573171#5 762573171#6 762573171#7 762573171#8 762573171#9"/>
</flow>
<flow id="6" color="1,1,0" begin="0" end="3600" vehsPerHour="300" type="Car" departLane="random" departSpeed="random">
    <route edges= "306974457#0 -306974430#2 -306974430#1 -306974430#0 595555015#4 E0 E1 778557937#0 697508117#0 697508117#1 697508117#2 697508117#3 697508117#4 239609601 762573176#0"/>
</flow>
<flow id="7" color="1,1,0" begin="0" end="3600" vehsPerHour="300" type="Car" departLane="random" departSpeed="random">
    <route edges= "-771580517 -268424996#4 -268424996#3 -268424992 771580519#1 -268425001 -268424996#1 -268424996#0 585564519#1 585564519#2 585564519#3 585564519#4 585564519#5 585564519#6 585564519#7 762573173 762573174#0 762573174#1 -778557937#4 -778557937#3 -778557937#2 306974459"/>
</flow>

<personFlow id="1" begin="0" end="3600" number="30" departPos="0">
    <walk from="-925797332" to="-919759553#1" arrivalPos="random"/>
    <walk from="-919759553#1" to="-919759553#0" arrivalPos="random"/>
    <stop lane="-919759553#0_0" duration="90" startPos="0" actType="singing"/>
    <walk from="-919759553#0" to="919759553#1" arrivalPos="random"/>
    <walk from="919759553#1" to="925797332" arrivalPos="random"/>    
</personFlow>

<personFlow id="2" begin="0" end="3600" number="30" departPos="0">
    <walk from="-948373788#0" to="919759559#1" arrivalPos="random"/>
    <walk from="919759559#1" to="919759559#2" arrivalPos="random"/>
    <walk from="919759559#2" to="306974448#3" arrivalPos="random"/>
    <walk from="306974448#3" to="E2" arrivalPos="random"/>   
    <walk from="E2" to="919759553#4" arrivalPos="random"/>   
    <walk from="919759553#4" to="-919759554#1" arrivalPos="random"/>   
    <walk from="-919759554#1" to="-919759554#0" arrivalPos="random"/> 
    <stop lane="-919759554#0_0" duration="45" startPos="0" actType="singing"/>
    <walk from="-919759554#0" to="919759554#0" arrivalPos="random"/>   
    <walk from="919759554#0" to="919759554#1" arrivalPos="random"/>   
    <walk from="919759554#1" to="-919759553#4" arrivalPos="random"/>   
    <walk from="-919759553#4" to="-E2" arrivalPos="random"/>   
    <walk from="-E2" to="-306974448#3" arrivalPos="random"/>    
    <walk from="-306974448#3" to="-919759559#2" arrivalPos="random"/>   
    <walk from="-919759559#2" to="-919759559#1" arrivalPos="random"/>   
    <walk from="-919759559#1" to="948373788#0" arrivalPos="random"/>    
</personFlow>

<personFlow id="3" begin="0" end="3600" number="30" departPos="0">
    <walk from="948373786" to="-948373788#1" arrivalPos="random"/>
    <walk from="-948373788#1" to="-948373788#0" arrivalPos="random"/>
    <walk from="-948373788#0" to="-919759559#0" arrivalPos="random"/>
    <walk from="-919759559#0" to="-919759553#2" arrivalPos="random"/>   
    <walk from="-919759553#2" to="925797332" arrivalPos="random"/> 
    <stop lane="925797332_0" duration="60" startPos="0" actType="singing"/>  
    <walk from="925797332" to="-925797332" arrivalPos="random"/>   
    <walk from="-925797332" to="-919759553#1" arrivalPos="random"/> 
    <walk from="-919759553#1" to="-948373791#1" arrivalPos="random"/>   
    <walk from="-948373791#1" to="-948373791#0" arrivalPos="random"/>   
    <walk from="-948373791#0" to="-919759553#4" arrivalPos="random"/>   
    <walk from="-919759553#4" to="948373792#0" arrivalPos="random"/>   
    <walk from="948373792#0" to="948373792#1" arrivalPos="random"/>    
</personFlow>


</routes>
