<?xml version="1.0" encoding="UTF-8"?>

<!-- generated on 2025-03-24 16:53:42 by Eclipse SUMO netedit Version 1.19.0
-->

<additional xmlns:xsi="http://www.w3.org/2001/XMLSchema-instance" xsi:noNamespaceSchemaLocation="http://sumo.dlr.de/xsd/additional_file.xsd">
    <!-- Detectors -->
    <inductionLoop id="0" lane="E_in_1" pos="5.00" period="300.00" file="e1_0.xml"/>
    <inductionLoop id="1" lane="E_in_2" pos="5.00" period="300.00" file="e1_0.xml"/>
    <inductionLoop id="2" lane="E_in_3" pos="5.00" period="300.00" file="e1_0.xml"/>
    <inductionLoop id="3" lane="E_in_4" pos="5.00" period="300.00" file="e1_0.xml"/>
    <inductionLoop id="4" lane="E_in_5" pos="5.00" period="300.00" file="e1_0.xml"/>
    <inductionLoop id="5" lane="E_in_6" pos="5.00" period="300.00" file="e1_0.xml"/>
</additional>
