<additional xmlns:xsi="http://www.w3.org/2001/XMLSchema-instance" xsi:noNamespaceSchemaLocation="
http://sumo.dlr.de/xsd/additional_file.xsd">
<busStop id="1" lane="E1_1" startPos="35" endPos="50" lines="100 101 102" />
<busStop id="2" lane="E7_1" startPos="60" endPos="75" lines="100 101 102" />
<busStop id="3" lane="-E5_1" startPos="60" endPos="75" lines="100 101 102" />
<busStop id="4" lane="E6_1" startPos="35" endPos="50" lines="103 104 105" />
<busStop id="5" lane="E8_1" startPos="10" endPos="30" lines="103 104 105" />
<busStop id="6" lane="-E0_1" startPos="35" endPos="50" lines="103 104 105" />

<vType id="Bus" length="10" maxSpeed="8" accel="2.6" decel="4.5" guiShape="bus"/>

<flow id="100" begin="0" end="7200" color="0,1,1" vehsPerHour="12" type="Bus">
    <route edges="E1 -E2 -E8 E7 -E5"/>
    <stop busStop="1" duration="20"/>
    <stop busStop="2" duration="40"/>
    <stop busStop="3" duration="30"/>
</flow>

<flow id="200" begin="0" end="7200" color="1,0,1" vehsPerHour="18" type="Bus">
    <route edges="E6 -E7 E8 E2 -E0"/>
    <stop busStop="4" duration="20"/>
    <stop busStop="5" duration="30"/>
    <stop busStop="6" duration="20"/>
</flow>


</additional>