<?xml version="1.0" encoding="UTF-8"?>

<!-- generated on 2024-11-18 20:53:22 by Eclipse SUMO netedit Version 1.19.0
<configuration xmlns:xsi="http://www.w3.org/2001/XMLSchema-instance" xsi:noNamespaceSchemaLocation="http://sumo.dlr.de/xsd/neteditConfiguration.xsd">

    <input>
        <sumo-net-file value="C:\Users\Administrator\Desktop\task1.net.xml"/>
    </input>

    <output>
        <output-file value="C:\Users\Administrator\Desktop\task1.net.xml"/>
    </output>

    <processing>
        <offset.disable-normalization value="true"/>
    </processing>

    <junctions>
        <no-internal-links value="false"/>
        <no-turnarounds value="true"/>
    </junctions>

    <netedit>
        <new-network value="false"/>
    </netedit>

</configuration>
-->

<net version="1.16" junctionCornerDetail="5" limitTurnSpeed="5.50" xmlns:xsi="http://www.w3.org/2001/XMLSchema-instance" xsi:noNamespaceSchemaLocation="http://sumo.dlr.de/xsd/net_file.xsd">

    <location netOffset="0.00,0.00" convBoundary="-100.00,-400.00,100.00,100.00" origBoundary="10000000000.00,10000000000.00,-10000000000.00,-10000000000.00" projParameter="!"/>

    <edge id=":J0_w0" function="walkingarea">
        <lane id=":J0_w0_0" index="0" allow="pedestrian" speed="2.78" length="14.00" width="2.00" shape="-6.00,100.00 -8.00,100.00 8.00,100.00 6.00,100.00"/>
    </edge>
    <edge id=":J1_0" function="internal">
        <lane id=":J1_0_0" index="0" disallow="pedestrian" speed="6.43" length="4.58" width="3.00" shape="-4.50,10.00 -4.84,7.59 -5.87,5.87 -6.00,5.80"/>
        <lane id=":J1_0_1" index="1" disallow="pedestrian" speed="7.21" length="6.75" width="3.00" shape="-4.50,10.00 -4.84,6.28 -5.87,3.62 -6.00,3.51"/>
    </edge>
    <edge id=":J1_2" function="internal">
        <lane id=":J1_2_0" index="0" disallow="pedestrian" speed="13.89" length="20.00" width="3.00" shape="-4.50,10.00 -4.50,-10.00"/>
        <lane id=":J1_2_1" index="1" disallow="pedestrian" speed="13.89" length="20.00" width="3.00" shape="-1.50,10.00 -1.50,-10.00"/>
    </edge>
    <edge id=":J1_4" function="internal">
        <lane id=":J1_4_0" index="0" disallow="pedestrian" speed="9.62" length="5.38" width="3.00" shape="-1.50,10.00 -0.89,4.65"/>
        <lane id=":J1_4_1" index="1" disallow="pedestrian" speed="9.06" length="4.31" width="3.00" shape="-1.50,10.00 -0.89,5.74"/>
    </edge>
    <edge id=":J1_24" function="internal">
        <lane id=":J1_24_0" index="0" disallow="pedestrian" speed="6.43" length="4.29" width="3.00" shape="-6.00,5.80 -7.59,4.84 -10.00,4.50"/>
    </edge>
    <edge id=":J1_25" function="internal">
        <lane id=":J1_25_0" index="0" disallow="pedestrian" speed="7.21" length="4.64" width="3.00" shape="-6.00,3.51 -7.59,2.03 -10.00,1.50"/>
    </edge>
    <edge id=":J1_26" function="internal">
        <lane id=":J1_26_0" index="0" disallow="pedestrian" speed="9.62" length="15.64" width="3.00" shape="-0.89,4.65 -0.78,3.66 1.37,-0.88 4.97,-3.59 10.00,-4.50"/>
    </edge>
    <edge id=":J1_27" function="internal">
        <lane id=":J1_27_0" index="0" disallow="pedestrian" speed="9.06" length="14.24" width="3.00" shape="-0.89,5.74 -0.78,4.97 1.37,1.37 4.97,-0.78 10.00,-1.50"/>
    </edge>
    <edge id=":J1_6" function="internal">
        <lane id=":J1_6_0" index="0" disallow="pedestrian" speed="6.43" length="8.87" width="3.00" shape="10.00,4.50 7.59,4.84 5.87,5.87 4.84,7.59 4.50,10.00"/>
        <lane id=":J1_6_1" index="1" disallow="pedestrian" speed="7.21" length="11.39" width="3.00" shape="10.00,4.50 6.28,4.84 3.62,5.87 2.03,7.59 1.50,10.00"/>
    </edge>
    <edge id=":J1_8" function="internal">
        <lane id=":J1_8_0" index="0" disallow="pedestrian" speed="13.89" length="20.00" width="3.00" shape="10.00,4.50 -10.00,4.50"/>
        <lane id=":J1_8_1" index="1" disallow="pedestrian" speed="13.89" length="20.00" width="3.00" shape="10.00,1.50 -10.00,1.50"/>
    </edge>
    <edge id=":J1_10" function="internal">
        <lane id=":J1_10_0" index="0" disallow="pedestrian" speed="9.62" length="21.02" width="3.00" shape="10.00,1.50 3.66,0.78 -0.88,-1.37 -3.59,-4.97 -4.50,-10.00"/>
        <lane id=":J1_10_1" index="1" disallow="pedestrian" speed="9.06" length="18.55" width="3.00" shape="10.00,1.50 4.97,0.78 1.37,-1.37 -0.78,-4.97 -1.50,-10.00"/>
    </edge>
    <edge id=":J1_12" function="internal">
        <lane id=":J1_12_0" index="0" disallow="pedestrian" speed="6.43" length="4.58" width="3.00" shape="4.50,-10.00 4.84,-7.59 5.87,-5.87 6.00,-5.80"/>
        <lane id=":J1_12_1" index="1" disallow="pedestrian" speed="7.21" length="6.75" width="3.00" shape="4.50,-10.00 4.84,-6.28 5.87,-3.62 6.00,-3.51"/>
    </edge>
    <edge id=":J1_14" function="internal">
        <lane id=":J1_14_0" index="0" disallow="pedestrian" speed="13.89" length="20.00" width="3.00" shape="4.50,-10.00 4.50,10.00"/>
        <lane id=":J1_14_1" index="1" disallow="pedestrian" speed="13.89" length="20.00" width="3.00" shape="1.50,-10.00 1.50,10.00"/>
    </edge>
    <edge id=":J1_16" function="internal">
        <lane id=":J1_16_0" index="0" disallow="pedestrian" speed="9.62" length="5.38" width="3.00" shape="1.50,-10.00 0.89,-4.65"/>
        <lane id=":J1_16_1" index="1" disallow="pedestrian" speed="9.06" length="4.31" width="3.00" shape="1.50,-10.00 0.89,-5.74"/>
    </edge>
    <edge id=":J1_28" function="internal">
        <lane id=":J1_28_0" index="0" disallow="pedestrian" speed="6.43" length="4.29" width="3.00" shape="6.00,-5.80 7.59,-4.84 10.00,-4.50"/>
    </edge>
    <edge id=":J1_29" function="internal">
        <lane id=":J1_29_0" index="0" disallow="pedestrian" speed="7.21" length="4.64" width="3.00" shape="6.00,-3.51 7.59,-2.03 10.00,-1.50"/>
    </edge>
    <edge id=":J1_30" function="internal">
        <lane id=":J1_30_0" index="0" disallow="pedestrian" speed="9.62" length="15.64" width="3.00" shape="0.89,-4.65 0.78,-3.66 -1.37,0.88 -4.97,3.59 -10.00,4.50"/>
    </edge>
    <edge id=":J1_31" function="internal">
        <lane id=":J1_31_0" index="0" disallow="pedestrian" speed="9.06" length="14.24" width="3.00" shape="0.89,-5.74 0.78,-4.97 -1.37,-1.37 -4.97,0.78 -10.00,1.50"/>
    </edge>
    <edge id=":J1_18" function="internal">
        <lane id=":J1_18_0" index="0" disallow="pedestrian" speed="6.43" length="8.87" width="3.00" shape="-10.00,-4.50 -7.59,-4.84 -5.87,-5.87 -4.84,-7.59 -4.50,-10.00"/>
        <lane id=":J1_18_1" index="1" disallow="pedestrian" speed="7.21" length="11.39" width="3.00" shape="-10.00,-4.50 -6.28,-4.84 -3.62,-5.87 -2.03,-7.59 -1.50,-10.00"/>
    </edge>
    <edge id=":J1_20" function="internal">
        <lane id=":J1_20_0" index="0" disallow="pedestrian" speed="13.89" length="20.00" width="3.00" shape="-10.00,-4.50 10.00,-4.50"/>
        <lane id=":J1_20_1" index="1" disallow="pedestrian" speed="13.89" length="20.00" width="3.00" shape="-10.00,-1.50 10.00,-1.50"/>
    </edge>
    <edge id=":J1_22" function="internal">
        <lane id=":J1_22_0" index="0" disallow="pedestrian" speed="9.62" length="21.02" width="3.00" shape="-10.00,-1.50 -3.66,-0.78 0.88,1.37 3.59,4.97 4.50,10.00"/>
        <lane id=":J1_22_1" index="1" disallow="pedestrian" speed="9.06" length="18.55" width="3.00" shape="-10.00,-1.50 -4.97,-0.78 -1.37,1.37 0.78,4.97 1.50,10.00"/>
    </edge>
    <edge id=":J1_c0" function="crossing" crossingEdges="-E6 E6">
        <lane id=":J1_c0_0" index="0" allow="pedestrian" speed="2.78" length="12.00" width="4.00" shape="6.00,8.00 -6.00,8.00"/>
    </edge>
    <edge id=":J1_c1" function="crossing" crossingEdges="E4 -E4">
        <lane id=":J1_c1_0" index="0" allow="pedestrian" speed="2.78" length="12.00" width="4.00" shape="8.00,-6.00 8.00,6.00"/>
    </edge>
    <edge id=":J1_c2" function="crossing" crossingEdges="-E7 E7">
        <lane id=":J1_c2_0" index="0" allow="pedestrian" speed="2.78" length="12.00" width="4.00" shape="-6.00,-8.00 6.00,-8.00"/>
    </edge>
    <edge id=":J1_c3" function="crossing" crossingEdges="-E5 E5">
        <lane id=":J1_c3_0" index="0" allow="pedestrian" speed="2.78" length="12.00" width="4.00" shape="-8.00,6.00 -8.00,-6.00"/>
    </edge>
    <edge id=":J1_w0" function="walkingarea">
        <lane id=":J1_w0_0" index="0" allow="pedestrian" speed="2.78" length="3.30" width="4.00" shape="-10.00,6.00 -10.00,8.00 -8.00,10.00 -6.00,10.00 -6.11,8.78 -6.44,7.78 -7.00,7.00 -7.78,6.44 -8.78,6.11"/>
    </edge>
    <edge id=":J1_w1" function="walkingarea">
        <lane id=":J1_w1_0" index="0" allow="pedestrian" speed="2.78" length="3.30" width="4.00" shape="6.00,10.00 8.00,10.00 10.00,8.00 10.00,6.00 8.78,6.11 7.78,6.44 7.00,7.00 6.44,7.78 6.11,8.78"/>
    </edge>
    <edge id=":J1_w2" function="walkingarea">
        <lane id=":J1_w2_0" index="0" allow="pedestrian" speed="2.78" length="3.30" width="4.00" shape="10.00,-6.00 10.00,-8.00 8.00,-10.00 6.00,-10.00 6.11,-8.78 6.44,-7.78 7.00,-7.00 7.78,-6.44 8.78,-6.11"/>
    </edge>
    <edge id=":J1_w3" function="walkingarea">
        <lane id=":J1_w3_0" index="0" allow="pedestrian" speed="2.78" length="3.30" width="4.00" shape="-6.00,-10.00 -8.00,-10.00 -10.00,-8.00 -10.00,-6.00 -8.78,-6.11 -7.78,-6.44 -7.00,-7.00 -6.44,-7.78 -6.11,-8.78"/>
    </edge>
    <edge id=":J11_w0" function="walkingarea">
        <lane id=":J11_w0_0" index="0" allow="pedestrian" speed="2.78" length="14.00" width="2.00" shape="100.00,6.00 100.00,8.00 100.00,-8.00 100.00,-6.00"/>
    </edge>
    <edge id=":J12_w0" function="walkingarea">
        <lane id=":J12_w0_0" index="0" allow="pedestrian" speed="2.78" length="14.00" width="2.00" shape="-100.00,-6.00 -100.00,-8.00 -100.00,8.00 -100.00,6.00"/>
    </edge>
    <edge id=":J13_0" function="internal">
        <lane id=":J13_0_0" index="0" disallow="pedestrian" speed="13.89" length="8.00" width="3.00" shape="-4.50,-96.00 -4.50,-104.00"/>
        <lane id=":J13_0_1" index="1" disallow="pedestrian" speed="13.89" length="8.00" width="3.00" shape="-1.50,-96.00 -1.50,-104.00"/>
    </edge>
    <edge id=":J13_2" function="internal">
        <lane id=":J13_2_0" index="0" disallow="pedestrian" speed="13.89" length="8.71" width="3.00" shape="7.50,-104.00 7.03,-101.55 6.00,-100.00 4.97,-98.45 4.50,-96.00"/>
        <lane id=":J13_2_1" index="1" disallow="pedestrian" speed="13.89" length="8.71" width="3.00" shape="4.50,-104.00 4.03,-101.55 3.00,-100.00 1.97,-98.45 1.50,-96.00"/>
    </edge>
    <edge id=":J13_w0" function="walkingarea">
        <lane id=":J13_w0_0" index="0" allow="pedestrian" speed="2.78" length="8.00" width="2.00" shape="-6.00,-104.00 -8.00,-104.00 -8.00,-96.00 -6.00,-96.00"/>
    </edge>
    <edge id=":J13_w1" function="walkingarea">
        <lane id=":J13_w1_0" index="0" allow="pedestrian" speed="2.78" length="8.54" width="2.00" shape="6.00,-96.00 8.00,-96.00 11.00,-104.00 9.00,-104.00 8.78,-102.22 8.22,-100.98 7.50,-100.00 6.78,-99.02 6.22,-97.78"/>
    </edge>
    <edge id=":J14_0" function="internal">
        <lane id=":J14_0_0" index="0" disallow="pedestrian" speed="13.89" length="9.00" width="3.00" shape="-4.50,-196.00 -5.44,-198.66 -7.50,-200.00 -9.56,-201.34 -10.50,-204.00"/>
        <lane id=":J14_0_1" index="1" disallow="pedestrian" speed="13.89" length="9.00" width="3.00" shape="-4.50,-196.00 -4.97,-198.45 -6.00,-200.00 -7.03,-201.55 -7.50,-204.00"/>
        <lane id=":J14_0_2" index="2" disallow="pedestrian" speed="13.89" length="9.00" width="3.00" shape="-1.50,-196.00 -1.97,-198.45 -3.00,-200.00 -4.03,-201.55 -4.50,-204.00"/>
        <lane id=":J14_0_3" index="3" disallow="pedestrian" speed="13.89" length="9.00" width="3.00" shape="-1.50,-196.00 -1.50,-204.00"/>
    </edge>
    <edge id=":J14_4" function="internal">
        <lane id=":J14_4_0" index="0" disallow="pedestrian" speed="13.89" length="8.64" width="3.00" shape="10.00,-204.00 9.61,-201.57 8.75,-200.00 7.89,-198.43 7.50,-196.00"/>
        <lane id=":J14_4_1" index="1" disallow="pedestrian" speed="13.89" length="8.64" width="3.00" shape="7.50,-204.00 7.03,-201.55 6.00,-200.00 4.97,-198.45 4.50,-196.00"/>
        <lane id=":J14_4_2" index="2" disallow="pedestrian" speed="13.89" length="8.64" width="3.00" shape="4.50,-204.00 4.03,-201.55 3.00,-200.00 1.97,-198.45 1.50,-196.00"/>
    </edge>
    <edge id=":J14_w0" function="walkingarea">
        <lane id=":J14_w0_0" index="0" allow="pedestrian" speed="2.78" length="10.00" width="2.00" shape="-12.00,-204.00 -14.00,-204.00 -8.00,-196.00 -6.00,-196.00 -6.44,-197.98 -7.56,-199.19 -9.00,-200.00 -10.44,-200.81 -11.56,-202.02"/>
    </edge>
    <edge id=":J14_w1" function="walkingarea">
        <lane id=":J14_w1_0" index="0" allow="pedestrian" speed="2.78" length="8.25" width="2.00" shape="9.00,-196.00 11.00,-196.00 13.00,-204.00 11.00,-204.00 10.85,-202.26 10.48,-201.01 10.00,-200.00 9.52,-198.99 9.15,-197.74"/>
    </edge>
    <edge id=":J15_0" function="internal">
        <lane id=":J15_0_0" index="0" disallow="pedestrian" speed="6.43" length="4.58" width="3.00" shape="-10.50,-287.00 -10.84,-289.41 -11.88,-291.13 -12.00,-291.20"/>
        <lane id=":J15_0_1" index="1" disallow="pedestrian" speed="7.21" length="6.75" width="3.00" shape="-10.50,-287.00 -10.84,-290.72 -11.88,-293.38 -12.00,-293.49"/>
        <lane id=":J15_0_2" index="2" disallow="pedestrian" speed="7.95" length="8.98" width="3.00" shape="-10.50,-287.00 -10.84,-292.03 -11.88,-295.63 -12.00,-295.78"/>
    </edge>
    <edge id=":J15_3" function="internal">
        <lane id=":J15_3_0" index="0" disallow="pedestrian" speed="13.89" length="26.11" width="3.00" shape="-7.50,-287.00 -7.97,-294.74 -9.00,-300.00 -10.03,-305.26 -10.50,-313.00"/>
        <lane id=":J15_3_1" index="1" disallow="pedestrian" speed="13.89" length="26.11" width="3.00" shape="-7.50,-287.00 -7.50,-313.00"/>
        <lane id=":J15_3_2" index="2" disallow="pedestrian" speed="13.89" length="26.11" width="3.00" shape="-4.50,-287.00 -4.50,-313.00"/>
        <lane id=":J15_3_3" index="3" disallow="pedestrian" speed="13.89" length="26.11" width="3.00" shape="-4.50,-287.00 -4.03,-294.74 -3.00,-300.00 -1.97,-305.26 -1.50,-313.00"/>
    </edge>
    <edge id=":J15_7" function="internal">
        <lane id=":J15_7_0" index="0" disallow="pedestrian" speed="11.53" length="9.45" width="3.00" shape="-1.50,-287.00 -0.41,-295.97 -0.22,-296.33"/>
        <lane id=":J15_7_1" index="1" disallow="pedestrian" speed="11.08" length="7.35" width="3.00" shape="-1.50,-287.00 -0.46,-294.27"/>
        <lane id=":J15_7_2" index="2" disallow="pedestrian" speed="10.62" length="5.45" width="3.00" shape="-1.50,-287.00 -0.57,-292.37"/>
    </edge>
    <edge id=":J15_42" function="internal">
        <lane id=":J15_42_0" index="0" disallow="pedestrian" speed="6.43" length="4.29" width="3.00" shape="-12.00,-291.20 -13.59,-292.16 -16.00,-292.50"/>
    </edge>
    <edge id=":J15_43" function="internal">
        <lane id=":J15_43_0" index="0" disallow="pedestrian" speed="7.21" length="4.64" width="3.00" shape="-12.00,-293.49 -13.59,-294.97 -16.00,-295.50"/>
    </edge>
    <edge id=":J15_44" function="internal">
        <lane id=":J15_44_0" index="0" disallow="pedestrian" speed="7.95" length="5.07" width="3.00" shape="-12.00,-295.78 -13.59,-297.78 -16.00,-298.50"/>
    </edge>
    <edge id=":J15_45" function="internal">
        <lane id=":J15_45_0" index="0" disallow="pedestrian" speed="11.53" length="21.23" width="3.00" shape="-0.22,-296.33 2.88,-302.38 8.34,-306.22 16.00,-307.50"/>
    </edge>
    <edge id=":J15_46" function="internal">
        <lane id=":J15_46_0" index="0" disallow="pedestrian" speed="11.08" length="20.88" width="3.00" shape="-0.46,-294.27 -0.41,-294.66 2.88,-300.13 8.34,-303.41 16.00,-304.50"/>
    </edge>
    <edge id=":J15_47" function="internal">
        <lane id=":J15_47_0" index="0" disallow="pedestrian" speed="10.62" length="20.40" width="3.00" shape="-0.57,-292.37 -0.41,-293.34 2.88,-297.88 8.34,-300.59 16.00,-301.50"/>
    </edge>
    <edge id=":J15_10" function="internal">
        <lane id=":J15_10_0" index="0" disallow="pedestrian" speed="6.57" length="9.28" width="2.00" shape="16.00,-292.50 13.38,-292.16 11.50,-291.13 10.38,-289.41 10.00,-287.00"/>
        <lane id=":J15_10_1" index="1" disallow="pedestrian" speed="7.21" length="11.39" width="3.00" shape="16.00,-292.50 12.28,-292.16 9.63,-291.13 8.03,-289.41 7.50,-287.00"/>
        <lane id=":J15_10_2" index="2" disallow="pedestrian" speed="7.95" length="14.05" width="3.00" shape="16.00,-292.50 10.97,-292.16 7.38,-291.13 5.22,-289.41 4.50,-287.00"/>
        <lane id=":J15_10_3" index="3" disallow="pedestrian" speed="8.64" length="16.79" width="3.00" shape="16.00,-292.50 9.66,-292.16 5.13,-291.13 2.41,-289.41 1.50,-287.00"/>
    </edge>
    <edge id=":J15_14" function="internal">
        <lane id=":J15_14_0" index="0" disallow="pedestrian" speed="13.89" length="32.12" width="3.00" shape="16.00,-295.50 6.48,-295.03 0.00,-294.00 -6.48,-292.97 -16.00,-292.50"/>
        <lane id=":J15_14_1" index="1" disallow="pedestrian" speed="13.89" length="32.12" width="3.00" shape="16.00,-295.50 -16.00,-295.50"/>
        <lane id=":J15_14_2" index="2" disallow="pedestrian" speed="13.89" length="32.12" width="3.00" shape="16.00,-295.50 6.48,-295.97 0.00,-297.00 -6.48,-298.03 -16.00,-298.50"/>
    </edge>
    <edge id=":J15_17" function="internal">
        <lane id=":J15_17_0" index="0" disallow="pedestrian" speed="12.06" length="33.63" width="3.00" shape="16.00,-298.50 4.41,-299.41 -3.88,-302.13 -8.84,-306.66 -10.50,-313.00"/>
        <lane id=":J15_17_1" index="1" disallow="pedestrian" speed="11.59" length="30.98" width="3.00" shape="16.00,-298.50 5.72,-299.41 -1.63,-302.13 -6.03,-306.66 -7.50,-313.00"/>
        <lane id=":J15_17_2" index="2" disallow="pedestrian" speed="11.11" length="28.39" width="3.00" shape="16.00,-298.50 7.03,-299.41 0.63,-302.13 -3.22,-306.66 -4.50,-313.00"/>
        <lane id=":J15_17_3" index="3" disallow="pedestrian" speed="10.62" length="25.85" width="3.00" shape="16.00,-298.50 8.34,-299.41 2.88,-302.13 -0.41,-306.66 -1.50,-313.00"/>
    </edge>
    <edge id=":J15_21" function="internal">
        <lane id=":J15_21_0" index="0" disallow="pedestrian" speed="6.43" length="4.58" width="3.00" shape="10.50,-313.00 10.84,-310.59 11.88,-308.88 12.00,-308.80"/>
        <lane id=":J15_21_1" index="1" disallow="pedestrian" speed="7.21" length="6.75" width="3.00" shape="10.50,-313.00 10.84,-309.28 11.88,-306.63 12.00,-306.51"/>
        <lane id=":J15_21_2" index="2" disallow="pedestrian" speed="7.95" length="8.98" width="3.00" shape="10.50,-313.00 10.84,-307.97 11.88,-304.38 12.00,-304.22"/>
    </edge>
    <edge id=":J15_24" function="internal">
        <lane id=":J15_24_0" index="0" disallow="pedestrian" speed="13.89" length="26.10" width="2.00" shape="7.50,-313.00 7.89,-305.26 8.75,-300.00 9.61,-294.74 10.00,-287.00"/>
        <lane id=":J15_24_1" index="1" disallow="pedestrian" speed="13.89" length="26.10" width="3.00" shape="7.50,-313.00 7.50,-287.00"/>
        <lane id=":J15_24_2" index="2" disallow="pedestrian" speed="13.89" length="26.10" width="3.00" shape="4.50,-313.00 4.50,-287.00"/>
        <lane id=":J15_24_3" index="3" disallow="pedestrian" speed="13.89" length="26.10" width="3.00" shape="4.50,-313.00 4.03,-305.26 3.00,-300.00 1.97,-294.74 1.50,-287.00"/>
    </edge>
    <edge id=":J15_28" function="internal">
        <lane id=":J15_28_0" index="0" disallow="pedestrian" speed="11.53" length="9.45" width="3.00" shape="1.50,-313.00 0.41,-304.03 0.22,-303.67"/>
        <lane id=":J15_28_1" index="1" disallow="pedestrian" speed="11.08" length="7.35" width="3.00" shape="1.50,-313.00 0.46,-305.73"/>
        <lane id=":J15_28_2" index="2" disallow="pedestrian" speed="10.62" length="5.45" width="3.00" shape="1.50,-313.00 0.57,-307.63"/>
    </edge>
    <edge id=":J15_48" function="internal">
        <lane id=":J15_48_0" index="0" disallow="pedestrian" speed="6.43" length="4.29" width="3.00" shape="12.00,-308.80 13.59,-307.84 16.00,-307.50"/>
    </edge>
    <edge id=":J15_49" function="internal">
        <lane id=":J15_49_0" index="0" disallow="pedestrian" speed="7.21" length="4.64" width="3.00" shape="12.00,-306.51 13.59,-305.03 16.00,-304.50"/>
    </edge>
    <edge id=":J15_50" function="internal">
        <lane id=":J15_50_0" index="0" disallow="pedestrian" speed="7.95" length="5.07" width="3.00" shape="12.00,-304.22 13.59,-302.22 16.00,-301.50"/>
    </edge>
    <edge id=":J15_51" function="internal">
        <lane id=":J15_51_0" index="0" disallow="pedestrian" speed="11.53" length="21.23" width="3.00" shape="0.22,-303.67 -2.88,-297.63 -8.34,-293.78 -16.00,-292.50"/>
    </edge>
    <edge id=":J15_52" function="internal">
        <lane id=":J15_52_0" index="0" disallow="pedestrian" speed="11.08" length="20.88" width="3.00" shape="0.46,-305.73 0.41,-305.34 -2.88,-299.88 -8.34,-296.59 -16.00,-295.50"/>
    </edge>
    <edge id=":J15_53" function="internal">
        <lane id=":J15_53_0" index="0" disallow="pedestrian" speed="10.62" length="20.40" width="3.00" shape="0.57,-307.63 0.41,-306.66 -2.88,-302.13 -8.34,-299.41 -16.00,-298.50"/>
    </edge>
    <edge id=":J15_31" function="internal">
        <lane id=":J15_31_0" index="0" disallow="pedestrian" speed="6.43" length="8.87" width="3.00" shape="-16.00,-307.50 -13.59,-307.84 -11.88,-308.88 -10.84,-310.59 -10.50,-313.00"/>
        <lane id=":J15_31_1" index="1" disallow="pedestrian" speed="7.21" length="11.39" width="3.00" shape="-16.00,-307.50 -12.28,-307.84 -9.63,-308.88 -8.03,-310.59 -7.50,-313.00"/>
        <lane id=":J15_31_2" index="2" disallow="pedestrian" speed="7.95" length="14.05" width="3.00" shape="-16.00,-307.50 -10.97,-307.84 -7.38,-308.88 -5.22,-310.59 -4.50,-313.00"/>
        <lane id=":J15_31_3" index="3" disallow="pedestrian" speed="8.64" length="16.79" width="3.00" shape="-16.00,-307.50 -9.66,-307.84 -5.13,-308.88 -2.41,-310.59 -1.50,-313.00"/>
    </edge>
    <edge id=":J15_35" function="internal">
        <lane id=":J15_35_0" index="0" disallow="pedestrian" speed="13.89" length="32.12" width="3.00" shape="-16.00,-304.50 -6.48,-304.97 0.00,-306.00 6.48,-307.03 16.00,-307.50"/>
        <lane id=":J15_35_1" index="1" disallow="pedestrian" speed="13.89" length="32.12" width="3.00" shape="-16.00,-304.50 16.00,-304.50"/>
        <lane id=":J15_35_2" index="2" disallow="pedestrian" speed="13.89" length="32.12" width="3.00" shape="-16.00,-304.50 -6.48,-304.03 0.00,-303.00 6.48,-301.97 16.00,-301.50"/>
    </edge>
    <edge id=":J15_38" function="internal">
        <lane id=":J15_38_0" index="0" disallow="pedestrian" speed="11.98" length="33.18" width="2.00" shape="-16.00,-301.50 -4.63,-300.59 3.50,-297.88 8.38,-293.34 10.00,-287.00"/>
        <lane id=":J15_38_1" index="1" disallow="pedestrian" speed="11.59" length="30.98" width="3.00" shape="-16.00,-301.50 -5.72,-300.59 1.63,-297.88 6.03,-293.34 7.50,-287.00"/>
        <lane id=":J15_38_2" index="2" disallow="pedestrian" speed="11.11" length="28.39" width="3.00" shape="-16.00,-301.50 -7.03,-300.59 -0.63,-297.88 3.22,-293.34 4.50,-287.00"/>
        <lane id=":J15_38_3" index="3" disallow="pedestrian" speed="10.62" length="25.85" width="3.00" shape="-16.00,-301.50 -8.34,-300.59 -2.88,-297.88 0.41,-293.34 1.50,-287.00"/>
    </edge>
    <edge id=":J15_c0" function="crossing" crossingEdges="-E2 E2">
        <lane id=":J15_c0_0" index="0" allow="pedestrian" speed="2.78" length="23.00" width="4.00" shape="11.00,-289.00 -12.00,-289.00"/>
    </edge>
    <edge id=":J15_c1" function="crossing" crossingEdges="-E1 E1">
        <lane id=":J15_c1_0" index="0" allow="pedestrian" speed="2.78" length="18.00" width="4.00" shape="14.00,-309.00 14.00,-291.00"/>
    </edge>
    <edge id=":J15_c2" function="crossing" crossingEdges="-E3 E3">
        <lane id=":J15_c2_0" index="0" allow="pedestrian" speed="2.78" length="24.00" width="4.00" shape="-12.00,-311.00 12.00,-311.00"/>
    </edge>
    <edge id=":J15_c3" function="crossing" crossingEdges="-E0 E0">
        <lane id=":J15_c3_0" index="0" allow="pedestrian" speed="2.78" length="18.00" width="4.00" shape="-14.00,-291.00 -14.00,-309.00"/>
    </edge>
    <edge id=":J15_w0" function="walkingarea">
        <lane id=":J15_w0_0" index="0" allow="pedestrian" speed="2.78" length="3.30" width="4.00" shape="-16.00,-291.00 -16.00,-289.00 -14.00,-287.00 -12.00,-287.00 -12.11,-288.22 -12.44,-289.22 -13.00,-290.00 -13.78,-290.56 -14.78,-290.89"/>
    </edge>
    <edge id=":J15_w1" function="walkingarea">
        <lane id=":J15_w1_0" index="0" allow="pedestrian" speed="2.78" length="3.77" width="4.00" shape="11.00,-287.00 13.00,-287.00 16.00,-289.00 16.00,-291.00 14.47,-290.89 13.22,-290.56 12.25,-290.00 11.56,-289.22 11.14,-288.22"/>
    </edge>
    <edge id=":J15_w2" function="walkingarea">
        <lane id=":J15_w2_0" index="0" allow="pedestrian" speed="2.78" length="3.30" width="4.00" shape="16.00,-309.00 16.00,-311.00 14.00,-313.00 12.00,-313.00 12.11,-311.78 12.44,-310.78 13.00,-310.00 13.78,-309.44 14.78,-309.11"/>
    </edge>
    <edge id=":J15_w3" function="walkingarea">
        <lane id=":J15_w3_0" index="0" allow="pedestrian" speed="2.78" length="3.30" width="4.00" shape="-12.00,-313.00 -14.00,-313.00 -16.00,-311.00 -16.00,-309.00 -14.78,-309.11 -13.78,-309.44 -13.00,-310.00 -12.44,-310.78 -12.11,-311.78"/>
    </edge>
    <edge id=":J16_w0" function="walkingarea">
        <lane id=":J16_w0_0" index="0" allow="pedestrian" speed="2.78" length="20.00" width="2.00" shape="100.00,-291.00 100.00,-289.00 100.00,-311.00 100.00,-309.00"/>
    </edge>
    <edge id=":J17_w0" function="walkingarea">
        <lane id=":J17_w0_0" index="0" allow="pedestrian" speed="2.78" length="20.00" width="2.00" shape="-100.00,-309.00 -100.00,-311.00 -100.00,-289.00 -100.00,-291.00"/>
    </edge>
    <edge id=":J18_w0" function="walkingarea">
        <lane id=":J18_w0_0" index="0" allow="pedestrian" speed="2.78" length="26.00" width="2.00" shape="12.00,-400.00 14.00,-400.00 -14.00,-400.00 -12.00,-400.00"/>
    </edge>

    <edge id="-E0" from="J15" to="J17" priority="-1" length="100.00">
        <lane id="-E0_0" index="0" allow="pedestrian" speed="13.89" length="100.00" width="2.00" shape="-16.00,-290.00 -100.00,-290.00"/>
        <lane id="-E0_1" index="1" disallow="pedestrian" speed="13.89" length="100.00" width="3.00" shape="-16.00,-292.50 -100.00,-292.50"/>
        <lane id="-E0_2" index="2" disallow="pedestrian" speed="13.89" length="100.00" width="3.00" shape="-16.00,-295.50 -100.00,-295.50"/>
        <lane id="-E0_3" index="3" disallow="pedestrian" speed="13.89" length="100.00" width="3.00" shape="-16.00,-298.50 -100.00,-298.50"/>
    </edge>
    <edge id="-E1" from="J15" to="J16" priority="-1" length="100.00">
        <lane id="-E1_0" index="0" allow="pedestrian" speed="13.89" length="100.00" width="2.00" shape="16.00,-310.00 100.00,-310.00"/>
        <lane id="-E1_1" index="1" disallow="pedestrian" speed="13.89" length="100.00" width="3.00" shape="16.00,-307.50 100.00,-307.50"/>
        <lane id="-E1_2" index="2" disallow="pedestrian" speed="13.89" length="100.00" width="3.00" shape="16.00,-304.50 100.00,-304.50"/>
        <lane id="-E1_3" index="3" disallow="pedestrian" speed="13.89" length="100.00" width="3.00" shape="16.00,-301.50 100.00,-301.50"/>
    </edge>
    <edge id="-E2" from="J15" to="J14" priority="-1" length="100.00">
        <lane id="-E2_0" index="0" allow="pedestrian" speed="13.89" length="100.00" width="2.00" shape="12.00,-287.00 12.00,-204.00"/>
        <lane id="-E2_1" index="1" disallow="pedestrian" speed="13.89" length="100.00" width="2.00" shape="10.00,-287.00 10.00,-204.00"/>
        <lane id="-E2_2" index="2" disallow="pedestrian" speed="13.89" length="100.00" width="3.00" shape="7.50,-287.00 7.50,-204.00"/>
        <lane id="-E2_3" index="3" disallow="pedestrian" speed="13.89" length="100.00" width="3.00" shape="4.50,-287.00 4.50,-204.00"/>
        <lane id="-E2_4" index="4" disallow="pedestrian" speed="13.89" length="100.00" width="3.00" shape="1.50,-287.00 1.50,-204.00"/>
    </edge>
    <edge id="-E3" from="J15" to="J18" priority="-1" length="100.00">
        <lane id="-E3_0" index="0" allow="pedestrian" speed="13.89" length="100.00" width="2.00" shape="-13.00,-313.00 -13.00,-400.00"/>
        <lane id="-E3_1" index="1" disallow="pedestrian" speed="13.89" length="100.00" width="3.00" shape="-10.50,-313.00 -10.50,-400.00"/>
        <lane id="-E3_2" index="2" disallow="pedestrian" speed="13.89" length="100.00" width="3.00" shape="-7.50,-313.00 -7.50,-400.00"/>
        <lane id="-E3_3" index="3" disallow="pedestrian" speed="13.89" length="100.00" width="3.00" shape="-4.50,-313.00 -4.50,-400.00"/>
        <lane id="-E3_4" index="4" disallow="pedestrian" speed="13.89" length="100.00" width="3.00" shape="-1.50,-313.00 -1.50,-400.00"/>
    </edge>
    <edge id="-E4" from="J11" to="J1" priority="-1" length="100.00">
        <lane id="-E4_0" index="0" allow="pedestrian" speed="13.89" length="100.00" width="2.00" shape="100.00,7.00 10.00,7.00"/>
        <lane id="-E4_1" index="1" disallow="pedestrian" speed="13.89" length="100.00" width="3.00" shape="100.00,4.50 10.00,4.50"/>
        <lane id="-E4_2" index="2" disallow="pedestrian" speed="13.89" length="100.00" width="3.00" shape="100.00,1.50 10.00,1.50"/>
    </edge>
    <edge id="-E5" from="J1" to="J12" priority="-1" length="100.00">
        <lane id="-E5_0" index="0" allow="pedestrian" speed="13.89" length="100.00" width="2.00" shape="-10.00,7.00 -100.00,7.00"/>
        <lane id="-E5_1" index="1" disallow="pedestrian" speed="13.89" length="100.00" width="3.00" shape="-10.00,4.50 -100.00,4.50"/>
        <lane id="-E5_2" index="2" disallow="pedestrian" speed="13.89" length="100.00" width="3.00" shape="-10.00,1.50 -100.00,1.50"/>
    </edge>
    <edge id="-E6" from="J1" to="J0" priority="-1" length="100.00">
        <lane id="-E6_0" index="0" allow="pedestrian" speed="13.89" length="100.00" width="2.00" shape="7.00,10.00 7.00,100.00"/>