<?xml version="1.15.0" encoding="UTF-8"?>
<routes>
<vType id="Car" length="5" maxSpeed="17" color="1,1,0"/>

<flow id="1" begin="0" end="7200" vehsPerHour="150" type="Car" departSpeed="17">
<route edges="E3 -E1"/>
</flow>
<flow id="2" begin="0" end="7200" vehsPerHour="150" type="Car" departSpeed="17">
<route edges="E3 -E0"/>
</flow>
<flow id="3" begin="0" end="7200" vehsPerHour="100" type="Car" departSpeed="17">
<route edges="E3 -E2 -E8 E7 E4"/>
</flow>
<flow id="4" begin="0" end="7200" vehsPerHour="100" type="Car" departSpeed="17">
<route edges="E3 -E2 -E8 E7 -E6"/>
</flow>
<flow id="5" begin="0" end="7200" vehsPerHour="100" type="Car" departSpeed="17">
<route edges="E3 -E2 -E8 E7 -E5"/>
</flow>
<flow id="6" begin="0" end="7200" vehsPerHour="150" type="Car" departSpeed="17">
<route edges="E0 -E3"/>
</flow>
<flow id="7" begin="0" end="7200" vehsPerHour="300" type="Car" departSpeed="17">
<route edges="E0 -E1"/>
</flow>
<flow id="8" begin="0" end="7200" vehsPerHour="50" type="Car" departSpeed="17">
<route edges="E0 -E2 -E8 E7 E4"/>
</flow>
<flow id="9" begin="0" end="7200" vehsPerHour="50" type="Car" departSpeed="17">
<route edges="E0 -E2 -E8 E7 -E6"/>
</flow>
<flow id="10" begin="0" end="7200" vehsPerHour="50" type="Car" departSpeed="17">
<route edges="E0 -E2 -E8 E7 -E5"/>
</flow>
<flow id="11" begin="0" end="7200" vehsPerHour="300" type="Car" departSpeed="17">
<route edges="E1 -E0"/>
</flow>
<flow id="12" begin="0" end="7200" vehsPerHour="150" type="Car" departSpeed="17">
<route edges="E1 -E3"/>
</flow>
<flow id="13" begin="0" end="7200" vehsPerHour="50" type="Car" departSpeed="17">
<route edges="E1 -E2 -E8 E7 E4"/>
</flow>
<flow id="14" begin="0" end="7200" vehsPerHour="50" type="Car" departSpeed="17">
<route edges="E1 -E2 -E8 E7 -E6"/>
</flow>
<flow id="15" begin="0" end="7200" vehsPerHour="50" type="Car" departSpeed="17">
<route edges="E1 -E2 -E8 E7 -E5"/>
</flow>
<flow id="16" begin="3600" end="7200" vehsPerHour="75" type="Car" departSpeed="17">
<route edges="E5 -E6"/>
</flow>
<flow id="17" begin="3600" end="7200" vehsPerHour="150" type="Car" departSpeed="17">
<route edges="E5 E4"/>
</flow>
<flow id="18" begin="3600" end="7200" vehsPerHour="25" type="Car" departSpeed="17">
<route edges="E5 -E7 E8 E2 -E0"/>
</flow>
<flow id="19" begin="3600" end="7200" vehsPerHour="25" type="Car" departSpeed="17">
<route edges="E5 -E7 E8 E2 -E3"/>
</flow>
<flow id="20" begin="3600" end="7200" vehsPerHour="25" type="Car" departSpeed="17">
<route edges="E5 -E7 E8 E2 -E1"/>
</flow>
<flow id="21" begin="3600" end="7200" vehsPerHour="75" type="Car" departSpeed="17">
<route edges="E6 -E5"/>
</flow>
<flow id="22" begin="3600" end="7200" vehsPerHour="75" type="Car" departSpeed="17">
<route edges="E6 E4"/>
</flow>
<flow id="23" begin="3600" end="7200" vehsPerHour="50" type="Car" departSpeed="17">
<route edges="E6 -E7 E8 E2 -E0"/>
</flow>
<flow id="24" begin="3600" end="7200" vehsPerHour="50" type="Car" departSpeed="17">
<route edges="E6 -E7 E8 E2 -E3"/>
</flow>
<flow id="25" begin="3600" end="7200" vehsPerHour="50" type="Car" departSpeed="17">
<route edges="E6 -E7 E8 E2 -E1"/>
</flow>
<flow id="26" begin="3600" end="7200" vehsPerHour="150" type="Car" departSpeed="17">
<route edges="-E4 -E5"/>
</flow>
<flow id="27" begin="3600" end="7200" vehsPerHour="75" type="Car" departSpeed="17">
<route edges="-E4 -E6"/>
</flow>
<flow id="28" begin="3600" end="7200" vehsPerHour="25" type="Car" departSpeed="17">
<route edges="-E4 -E7 E8 E2 -E0"/>
</flow>
<flow id="29" begin="3600" end="7200" vehsPerHour="25" type="Car" departSpeed="17">
<route edges="-E4 -E7 E8 E2 -E3"/>
</flow>
<flow id="30" begin="3600" end="7200" vehsPerHour="25" type="Car" departSpeed="17">
<route edges="-E4 -E7 E8 E2 -E1"/>
</flow>

</routes>
