<?xml version="1.0" encoding="UTF-8"?>

<!-- generated on 2025-04-12 21:23:52 by Eclipse SUMO GUI Version 1.21.0
<sumoConfiguration xmlns:xsi="http://www.w3.org/2001/XMLSchema-instance" xsi:noNamespaceSchemaLocation="http://sumo.dlr.de/xsd/sumoConfiguration.xsd">

    <input>
        <net-file value="data/GC_GQ.net.xml"/>
        <route-files value="data/GC_GQ.rou.xml"/>
        <additional-files value="data/inductionLoop.add.xml"/>
    </input>

    <output>
        <tripinfo-output value="tripinfo.xml"/>
    </output>

    <traci_server>
        <remote-port value="12441"/>
    </traci_server>

</sumoConfiguration>
-->

<snapshot xmlns:xsi="http://www.w3.org/2001/XMLSchema-instance" xsi:noNamespaceSchemaLocation="http://sumo.dlr.de/xsd/state_file.xsd" version="1.21.0" time="0.00" type="micro">
    <route id="!e-n-big.0" state="0" edges="E_i EN_out EN_out.26 N_o"/>
    <route id="!e-n-medium.0" state="0" edges="E_i EN_out EN_out.26 N_o"/>
    <route id="!e-n-small.0" state="0" edges="E_i EN_out EN_out.26 N_o"/>
    <route id="!e-s-big.0" state="0" edges="E_i E_in N_out S_o"/>
    <route id="!e-s-medium.0" state="0" edges="E_i E_in N_out S_o"/>
    <route id="!e-s-small.0" state="0" edges="E_i E_in N_out S_o"/>
    <route id="!e-w-big.0" state="0" edges="E_i E_in E_out W_o"/>
    <route id="!e-w-medium.0" state="0" edges="E_i E_in E_out W_o"/>
    <route id="!e-w-small.0" state="0" edges="E_i E_in E_out W_o"/>
    <route id="!e-w-small.1" state="0" edges="E_i E_in E_out W_o"/>
    <route id="!n-e-big.0" state="0" edges="N_i N_in W_out W_out1 E_o"/>
    <route id="!n-e-medium.0" state="0" edges="N_i N_in W_out W_out1 E_o"/>
    <route id="!n-e-small.0" state="0" edges="N_i N_in W_out W_out1 E_o"/>
    <route id="!n-s-big.0" state="0" edges="N_i N_in N_out S_o"/>
    <route id="!n-s-bus.0" state="0" edges="N_i N_in N_out S_o"/>
    <route id="!n-s-medium.0" state="0" edges="N_i N_in N_out S_o"/>
    <route id="!n-s-small.0" state="0" edges="N_i N_in N_out S_o"/>
    <route id="!n-w-big.0" state="0" edges="N_i NW_out NW_out.31 W_o"/>
    <route id="!n-w-bus.0" state="0" edges="N_i NW_out NW_out.31 W_o"/>
    <route id="!n-w-medium.0" state="0" edges="N_i NW_out NW_out.31 W_o"/>
    <route id="!n-w-small.0" state="0" edges="N_i NW_out NW_out.31 W_o"/>
    <route id="!s-e-big.0" state="0" edges="S_i S_in1 SE_out SE_out.28 W_out1 E_o"/>
    <route id="!s-e-bus.0" state="0" edges="S_i S_in1 SE_out SE_out.28 W_out1 E_o"/>
    <route id="!s-e-medium.0" state="0" edges="S_i S_in1 SE_out SE_out.28 W_out1 E_o"/>
    <route id="!s-e-small.0" state="0" edges="S_i S_in1 SE_out SE_out.28 W_out1 E_o"/>
    <route id="!s-n-big.0" state="0" edges="S_i S_in1 S_in S_out N_o"/>
    <route id="!s-n-bus.0" state="0" edges="S_i S_in1 S_in S_out N_o"/>
    <route id="!s-n-medium.0" state="0" edges="S_i S_in1 S_in S_out N_o"/>
    <route id="!s-n-small.0" state="0" edges="S_i S_in1 S_in S_out N_o"/>
    <route id="!s-w-big.0" state="0" edges="S_i S_in1 S_in E_out W_o"/>
    <route id="!s-w-bus.0" state="0" edges="S_i S_in1 S_in E_out W_o"/>
    <route id="!s-w-medium.0" state="0" edges="S_i S_in1 S_in E_out W_o"/>
    <route id="!s-w-small.0" state="0" edges="S_i S_in1 S_in E_out W_o"/>
    <route id="!w-e-big.0" state="0" edges="W_i W_in W_out W_out1 E_o"/>
    <route id="!w-e-medium.0" state="0" edges="W_i W_in W_out W_out1 E_o"/>
    <route id="!w-e-small.0" state="0" edges="W_i W_in W_out W_out1 E_o"/>
    <route id="!w-n-bus.0" state="0" edges="W_i W_in S_out N_o"/>
    <route id="!w-n-medium.0" state="0" edges="W_i W_in S_out N_o"/>
    <route id="!w-n-small.0" state="0" edges="W_i W_in S_out N_o"/>
    <route id="!w-s-medium.0" state="0" edges="W_i WS_out WS_out.26 S_o"/>
    <route id="!w-s-small.0" state="0" edges="W_i WS_out WS_out.26 S_o"/>
    <delay number="0" begin="41" end="0" depart="0.00" time="0.00"/>
    <vType id="bus" vClass="bus" color="white"/>
    <vType id="passenger" vClass="passenger"/>
    <vType id="person" vClass="pedestrian" color="cyan"/>
    <vType id="trailer" vClass="trailer" color="red"/>
    <vType id="truck" vClass="truck" color="green"/>
    <vehicle id="e-n-big.0" type="trailer" depart="0.00" departLane="best" route="!e-n-big.0" distance="0 0" speedFactor="1.0152" state="6 9223372036854774807 0 -1.00 0 0.00 0 0 0" pos="0.00 0.00 0.00" speed="0.00 0.00" angle="90.00" posLat="0.00" waitingTime="100000 0"/>
    <vehicle id="e-n-medium.0" type="truck" depart="0.00" departLane="best" route="!e-n-medium.0" distance="0 0" speedFactor="0.9155" state="6 9223372036854774807 0 -1.00 0 0.00 0 0 0" pos="0.00 0.00 0.00" speed="0.00 0.00" angle="90.00" posLat="0.00" waitingTime="100000 0"/>
    <vehicle id="e-n-small.0" type="passenger" depart="0.00" departLane="best" route="!e-n-small.0" distance="0 0" speedFactor="1.0458" state="6 9223372036854774807 0 -1.00 0 0.00 0 0 0" pos="0.00 0.00 0.00" speed="0.00 0.00" angle="90.00" posLat="0.00" waitingTime="100000 0"/>
    <vehicle id="e-s-big.0" type="trailer" depart="0.00" departLane="best" route="!e-s-big.0" distance="0 0" speedFactor="0.9430" state="6 9223372036854774807 0 -1.00 0 0.00 0 0 0" pos="0.00 0.00 0.00" speed="0.00 0.00" angle="90.00" posLat="0.00" waitingTime="100000 0"/>
    <vehicle id="e-s-medium.0" type="truck" depart="0.00" departLane="best" route="!e-s-medium.0" distance="0 0" speedFactor="0.9689" state="6 9223372036854774807 0 -1.00 0 0.00 0 0 0" pos="0.00 0.00 0.00" speed="0.00 0.00" angle="90.00" posLat="0.00" waitingTime="100000 0"/>
    <vehicle id="e-s-small.0" type="passenger" depart="0.00" departLane="best" route="!e-s-small.0" distance="0 0" speedFactor="0.8569" state="6 9223372036854774807 0 -1.00 0 0.00 0 0 0" pos="0.00 0.00 0.00" speed="0.00 0.00" angle="90.00" posLat="0.00" waitingTime="100000 0"/>
    <vehicle id="e-w-big.0" type="trailer" depart="0.00" departLane="best" route="!e-w-big.0" distance="0 0" speedFactor="1.0453" state="6 9223372036854774807 0 -1.00 0 0.00 0 0 0" pos="0.00 0.00 0.00" speed="0.00 0.00" angle="90.00" posLat="0.00" waitingTime="100000 0"/>
    <vehicle id="e-w-medium.0" type="truck" depart="0.00" departLane="best" route="!e-w-medium.0" distance="0 0" speedFactor="1.0131" state="6 9223372036854774807 0 -1.00 0 0.00 0 0 0" pos="0.00 0.00 0.00" speed="0.00 0.00" angle="90.00" posLat="0.00" waitingTime="100000 0"/>
    <vehicle id="e-w-small.0" type="passenger" depart="0.00" departLane="best" route="!e-w-small.0" distance="0 0" speedFactor="1.0471" state="6 9223372036854774807 0 -1.00 0 0.00 0 0 0" pos="0.00 0.00 0.00" speed="0.00 0.00" angle="90.00" posLat="0.00" waitingTime="100000 0"/>
    <vehicle id="e-w-small.1" type="passenger" depart="5.47" departLane="best" route="!e-w-small.1" distance="0 0" speedFactor="1.1023" state="6 9223372036854774807 0 -1.00 0 0.00 0 0 0" pos="0.00 0.00 0.00" speed="0.00 0.00" angle="90.00" posLat="0.00" waitingTime="100000 0"/>
    <vehicle id="n-e-big.0" type="trailer" depart="0.00" departLane="best" route="!n-e-big.0" distance="0 0" speedFactor="1.0615" state="6 9223372036854774807 0 -1.00 0 0.00 0 0 0" pos="0.00 0.00 0.00" speed="0.00 0.00" angle="90.00" posLat="0.00" waitingTime="100000 0"/>
    <vehicle id="n-e-medium.0" type="truck" depart="0.00" departLane="best" route="!n-e-medium.0" distance="0 0" speedFactor="0.9956" state="6 9223372036854774807 0 -1.00 0 0.00 0 0 0" pos="0.00 0.00 0.00" speed="0.00 0.00" angle="90.00" posLat="0.00" waitingTime="100000 0"/>
    <vehicle id="n-e-small.0" type="passenger" depart="0.00" departLane="best" route="!n-e-small.0" distance="0 0" speedFactor="0.9268" state="6 9223372036854774807 0 -1.00 0 0.00 0 0 0" pos="0.00 0.00 0.00" speed="0.00 0.00" angle="90.00" posLat="0.00" waitingTime="100000 0"/>
    <vehicle id="n-s-big.0" type="trailer" depart="0.00" departLane="best" route="!n-s-big.0" distance="0 0" speedFactor="0.9392" state="6 9223372036854774807 0 -1.00 0 0.00 0 0 0" pos="0.00 0.00 0.00" speed="0.00 0.00" angle="90.00" posLat="0.00" waitingTime="100000 0"/>
    <vehicle id="n-s-bus.0" type="bus" depart="0.00" departLane="best" route="!n-s-bus.0" distance="0 0" speedFactor="1.0000" state="6 9223372036854774807 0 -1.00 0 0.00 0 0 0" pos="0.00 0.00 0.00" speed="0.00 0.00" angle="90.00" posLat="0.00" waitingTime="100000 0"/>
    <vehicle id="n-s-medium.0" type="truck" depart="0.00" departLane="best" route="!n-s-medium.0" distance="0 0" speedFactor="0.9707" state="6 9223372036854774807 0 -1.00 0 0.00 0 0 0" pos="0.00 0.00 0.00" speed="0.00 0.00" angle="90.00" posLat="0.00" waitingTime="100000 0"/>
    <vehicle id="n-s-small.0" type="passenger" depart="0.00" departLane="best" route="!n-s-small.0" distance="0 0" speedFactor="0.9362" state="6 9223372036854774807 0 -1.00 0 0.00 0 0 0" pos="0.00 0.00 0.00" speed="0.00 0.00" angle="90.00" posLat="0.00" waitingTime="100000 0"/>
    <vehicle id="n-w-big.0" type="trailer" depart="0.00" departLane="best" route="!n-w-big.0" distance="0 0" speedFactor="1.0791" state="6 9223372036854774807 0 -1.00 0 0.00 0 0 0" pos="0.00 0.00 0.00" speed="0.00 0.00" angle="90.00" posLat="0.00" waitingTime="100000 0"/>
    <vehicle id="n-w-bus.0" type="bus" depart="0.00" departLane="best" route="!n-w-bus.0" distance="0 0" speedFactor="1.0000" state="6 9223372036854774807 0 -1.00 0 0.00 0 0 0" pos="0.00 0.00 0.00" speed="0.00 0.00" angle="90.00" posLat="0.00" waitingTime="100000 0"/>
    <vehicle id="n-w-medium.0" type="truck" depart="0.00" departLane="best" route="!n-w-medium.0" distance="0 0" speedFactor="1.0091" state="6 9223372036854774807 0 -1.00 0 0.00 0 0 0" pos="0.00 0.00 0.00" speed="0.00 0.00" angle="90.00" posLat="0.00" waitingTime="100000 0"/>
    <vehicle id="n-w-small.0" type="passenger" depart="0.00" departLane="best" route="!n-w-small.0" distance="0 0" speedFactor="1.0102" state="6 9223372036854774807 0 -1.00 0 0.00 0 0 0" pos="0.00 0.00 0.00" speed="0.00 0.00" angle="90.00" posLat="0.00" waitingTime="100000 0"/>
    <vehicle id="s-e-big.0" type="trailer" depart="0.00" departLane="best" route="!s-e-big.0" distance="0 0" speedFactor="0.9875" state="6 9223372036854774807 0 -1.00 0 0.00 0 0 0" pos="0.00 0.00 0.00" speed="0.00 0.00" angle="90.00" posLat="0.00" waitingTime="100000 0"/>
    <vehicle id="s-e-bus.0" type="bus" depart="0.00" departLane="best" route="!s-e-bus.0" distance="0 0" speedFactor="1.0000" state="6 9223372036854774807 0 -1.00 0 0.00 0 0 0" pos="0.00 0.00 0.00" speed="0.00 0.00" angle="90.00" posLat="0.00" waitingTime="100000 0"/>
    <vehicle id="s-e-medium.0" type="truck" depart="0.00" departLane="best" route="!s-e-medium.0" distance="0 0" speedFactor="0.9448" state="6 9223372036854774807 0 -1.00 0 0.00 0 0 0" pos="0.00 0.00 0.00" speed="0.00 0.00" angle="90.00" posLat="0.00" waitingTime="100000 0"/>
    <vehicle id="s-e-small.0" type="passenger" depart="0.00" departLane="best" route="!s-e-small.0" distance="0 0" speedFactor="0.8257" state="6 9223372036854774807 0 -1.00 0 0.00 0 0 0" pos="0.00 0.00 0.00" speed="0.00 0.00" angle="90.00" posLat="0.00" waitingTime="100000 0"/>
    <vehicle id="s-n-big.0" type="trailer" depart="0.00" departLane="best" route="!s-n-big.0" distance="0 0" speedFactor="0.9363" state="6 9223372036854774807 0 -1.00 0 0.00 0 0 0" pos="0.00 0.00 0.00" speed="0.00 0.00" angle="90.00" posLat="0.00" waitingTime="100000 0"/>
    <vehicle id="s-n-bus.0" type="bus" depart="0.00" departLane="best" route="!s-n-bus.0" distance="0 0" speedFactor="1.0000" state="6 9223372036854774807 0 -1.00 0 0.00 0 0 0" pos="0.00 0.00 0.00" speed="0.00 0.00" angle="90.00" posLat="0.00" waitingTime="100000 0"/>
    <vehicle id="s-n-medium.0" type="truck" depart="0.00" departLane="best" route="!s-n-medium.0" distance="0 0" speedFactor="0.9586" state="6 9223372036854774807 0 -1.00 0 0.00 0 0 0" pos="0.00 0.00 0.00" speed="0.00 0.00" angle="90.00" posLat="0.00" waitingTime="100000 0"/>
    <vehicle id="s-n-small.0" type="passenger" depart="0.00" departLane="best" route="!s-n-small.0" distance="0 0" speedFactor="0.9488" state="6 9223372036854774807 0 -1.00 0 0.00 0 0 0" pos="0.00 0.00 0.00" speed="0.00 0.00" angle="90.00" posLat="0.00" waitingTime="100000 0"/>
    <vehicle id="s-w-big.0" type="trailer" depart="0.00" departLane="best" route="!s-w-big.0" distance="0 0" speedFactor="1.0659" state="6 9223372036854774807 0 -1.00 0 0.00 0 0 0" pos="0.00 0.00 0.00" speed="0.00 0.00" angle="90.00" posLat="0.00" waitingTime="100000 0"/>
    <vehicle id="s-w-bus.0" type="bus" depart="0.00" departLane="best" route="!s-w-bus.0" distance="0 0" speedFactor="1.0000" state="6 9223372036854774807 0 -1.00 0 0.00 0 0 0" pos="0.00 0.00 0.00" speed="0.00 0.00" angle="90.00" posLat="0.00" waitingTime="100000 0"/>
    <vehicle id="s-w-medium.0" type="truck" depart="0.00" departLane="best" route="!s-w-medium.0" distance="0 0" speedFactor="0.9657" state="6 9223372036854774807 0 -1.00 0 0.00 0 0 0" pos="0.00 0.00 0.00" speed="0.00 0.00" angle="90.00" posLat="0.00" waitingTime="100000 0"/>
    <vehicle id="s-w-small.0" type="passenger" depart="0.00" departLane="best" route="!s-w-small.0" distance="0 0" speedFactor="1.1786" state="6 9223372036854774807 0 -1.00 0 0.00 0 0 0" pos="0.00 0.00 0.00" speed="0.00 0.00" angle="90.00" posLat="0.00" waitingTime="100000 0"/>
    <vehicle id="w-e-big.0" type="trailer" depart="0.00" departLane="best" route="!w-e-big.0" distance="0 0" speedFactor="1.0772" state="6 9223372036854774807 0 -1.00 0 0.00 0 0 0" pos="0.00 0.00 0.00" speed="0.00 0.00" angle="90.00" posLat="0.00" waitingTime="100000 0"/>
    <vehicle id="w-e-medium.0" type="truck" depart="0.00" departLane="best" route="!w-e-medium.0" distance="0 0" speedFactor="1.0026" state="6 9223372036854774807 0 -1.00 0 0.00 0 0 0" pos="0.00 0.00 0.00" speed="0.00 0.00" angle="90.00" posLat="0.00" waitingTime="100000 0"/>
    <vehicle id="w-e-small.0" type="passenger" depart="0.00" departLane="best" route="!w-e-small.0" distance="0 0" speedFactor="1.1718" state="6 9223372036854774807 0 -1.00 0 0.00 0 0 0" pos="0.00 0.00 0.00" speed="0.00 0.00" angle="90.00" posLat="0.00" waitingTime="100000 0"/>
    <vehicle id="w-n-bus.0" type="bus" depart="0.00" departLane="best" route="!w-n-bus.0" distance="0 0" speedFactor="1.0000" state="6 9223372036854774807 0 -1.00 0 0.00 0 0 0" pos="0.00 0.00 0.00" speed="0.00 0.00" angle="90.00" posLat="0.00" waitingTime="100000 0"/>
    <vehicle id="w-n-medium.0" type="truck" depart="0.00" departLane="best" route="!w-n-medium.0" distance="0 0" speedFactor="0.9974" state="6 9223372036854774807 0 -1.00 0 0.00 0 0 0" pos="0.00 0.00 0.00" speed="0.00 0.00" angle="90.00" posLat="0.00" waitingTime="100000 0"/>
    <vehicle id="w-n-small.0" type="passenger" depart="0.00" departLane="best" route="!w-n-small.0" distance="0 0" speedFactor="1.0197" state="6 9223372036854774807 0 -1.00 0 0.00 0 0 0" pos="0.00 0.00 0.00" speed="0.00 0.00" angle="90.00" posLat="0.00" waitingTime="100000 0"/>
    <vehicle id="w-s-medium.0" type="truck" depart="0.00" departLane="best" route="!w-s-medium.0" distance="0 0" speedFactor="0.9866" state="6 9223372036854774807 0 -1.00 0 0.00 0 0 0" pos="0.00 0.00 0.00" speed="0.00 0.00" angle="90.00" posLat="0.00" waitingTime="100000 0"/>
    <vehicle id="w-s-small.0" type="passenger" depart="0.00" departLane="best" route="!w-s-small.0" distance="0 0" speedFactor="1.1797" state="6 9223372036854774807 0 -1.00 0 0.00 0 0 0" pos="0.00 0.00 0.00" speed="0.00 0.00" angle="90.00" posLat="0.00" waitingTime="100000 0"/>
    <tlLogic id="cluster_2473907747_2736518102_2737637179_2737637287" programID="0" phase="0" duration="0"/>
</snapshot>
