<?xml version="1.15.0" encoding="UTF-8"?>
<routes>
    <vType id="CarA" length="3.5" maxspeed="13"/>
    <vType id="BigCar" length="6" maxSpeed="8"/>

    <flow id="W_S" color="1,1,0" begin="0" end="3600" vehsPerHour="493" type="CarA" departLane="random" departSpeed="max">
        <route edges="-E3 -E2"/>
    </flow>

    <flow id="W_S_B" color="1,1,0" begin="0" end="3600" vehsPerHour="20" type="BigCar" departLane="random" departSpeed="max">
        <route edges="-E3 -E2"/>
    </flow>

    <flow id="W_L" color="1,1,0" begin="0" end="3600" vehsPerHour="104" type="CarA" departLane="random" departSpeed="max">
        <route edges="-E3 E1"/>
    </flow>

    <flow id="W_SR" color="1,1,0" begin="0" end="3600" vehsPerHour="113" type="CarA" departLane="random" departSpeed="max">
        <route edges="-E3 -E0"/>
    </flow>

    <flow id="E_S" color="1,1,0" begin="0" end="3600" vehsPerHour="404" type="CarA" departLane="random" departSpeed="max">
        <route edges="E2 E3"/>
        </flow>

    <flow id="E_S_B" color="1,1,0" begin="0" end="3600" vehsPerHour="12" type="BigCar" departLane="random" departSpeed="max">
        <route edges="E2 E3"/>
    </flow>

    <flow id="E_L" color="1,1,0" begin="0" end="3600" vehsPerHour="101" type="CarA" departLane="random" departSpeed="max">
        <route edges="E2 -E0"/>
    </flow>

    <flow id="E_SR" color="1,1,0" begin="0" end="3600" vehsPerHour="80" type="CarA" departLane="random" departSpeed="max">
        <route edges="E2 E1"/>
    </flow>

    <flow id="N_S" color="1,1,0" begin="0" end="3600" vehsPerHour="647" type="CarA" departLane="random" departSpeed="max">
        <route edges="E0 E1"/>
    </flow>

    <flow id="N_S_B" color="1,1,0" begin="0" end="3600" vehsPerHour="13" type="BigCar" departLane="random" departSpeed="max">
        <route edges="E0 E1"/>
    </flow>

    <flow id="N_L" color="1,1,0" begin="0" end="3600" vehsPerHour="64" type="CarA" departLane="random" departSpeed="max">
        <route edges="E0 E3"/>
    </flow>

    <flow id="N_SR" color="1,1,0" begin="0" end="3600" vehsPerHour="113" type="CarA" departLane="random" departSpeed="max">
        <route edges="E0 -E2"/>
    </flow>

    <flow id="S_S" color="1,1,0" begin="0" end="3600" vehsPerHour="742" type="CarA" departLane="random" departSpeed="max">
        <route edges="-E1 -E0"/>
    </flow>

    <flow id="S_S_B" color="1,1,0" begin="0" end="3600" vehsPerHour="15" type="BigCar" departLane="random" departSpeed="max">
        <route edges="-E1 -E0"/>
    </flow>

    <flow id="S_L" color="1,1,0" begin="0" end="3600" vehsPerHour="73" type="CarA" departLane="random" departSpeed="max">
        <route edges="-E1 -E2"/>
    </flow>

    <flow id="S_SR" color="1,1,0" begin="0" end="3600" vehsPerHour="120" type="CarA" departLane="random" departSpeed="max">
        <route edges="-E1 E3"/>
    </flow>
</routes>
